

        *** GPGPU-Sim Simulator Version 4.2.0  [build gpgpu-sim_git-commit-5ca3a6789e9a0b8bb5eb4ad8d0896ac896e5a49a_modified_6.0] ***


GPGPU-Sim PTX: simulation mode 0 (can change with PTX_SIM_MODE_FUNC environment variable:
               1=functional simulation only, 0=detailed performance simulator)
GPGPU-Sim PTX: overriding embedded ptx with ptx file (PTX_SIM_USE_PTX_FILE is set)
GPGPU-Sim: Configuration options:

-save_embedded_ptx                      0 # saves ptx files embedded in binary as <n>.ptx
-keep                                   0 # keep intermediate files created by GPGPU-Sim when interfacing with external programs
-gpgpu_ptx_save_converted_ptxplus                    0 # Saved converted ptxplus to a file
-gpgpu_occupancy_sm_number                   20 # The SM number to pass to ptxas when getting register usage for computing GPU occupancy. This parameter is required in the config.
-ptx_opcode_latency_int      4,13,4,5,145,32 # Opcode latencies for integers <ADD,MAX,MUL,MAD,DIV,SHFL>Default 1,1,19,25,145,32
-ptx_opcode_latency_fp          4,13,4,5,39 # Opcode latencies for single precision floating points <ADD,MAX,MUL,MAD,DIV>Default 1,1,1,1,30
-ptx_opcode_latency_dp         8,19,8,8,330 # Opcode latencies for double precision floating points <ADD,MAX,MUL,MAD,DIV>Default 8,8,8,8,335
-ptx_opcode_latency_sfu                    8 # Opcode latencies for SFU instructionsDefault 8
-ptx_opcode_latency_tesnor                   64 # Opcode latencies for Tensor instructionsDefault 64
-ptx_opcode_initiation_int          1,2,2,1,8,4 # Opcode initiation intervals for integers <ADD,MAX,MUL,MAD,DIV,SHFL>Default 1,1,4,4,32,4
-ptx_opcode_initiation_fp            1,2,1,1,4 # Opcode initiation intervals for single precision floating points <ADD,MAX,MUL,MAD,DIV>Default 1,1,1,1,5
-ptx_opcode_initiation_dp         8,16,8,8,130 # Opcode initiation intervals for double precision floating points <ADD,MAX,MUL,MAD,DIV>Default 8,8,8,8,130
-ptx_opcode_initiation_sfu                    8 # Opcode initiation intervals for sfu instructionsDefault 8
-ptx_opcode_initiation_tensor                   64 # Opcode initiation intervals for tensor instructionsDefault 64
-cdp_latency         7200,8000,100,12000,1600 # CDP API latency <cudaStreamCreateWithFlags, cudaGetParameterBufferV2_init_perWarp, cudaGetParameterBufferV2_perKernel, cudaLaunchDeviceV2_init_perWarp, cudaLaunchDevicV2_perKernel>Default 7200,8000,100,12000,1600
-network_mode                           1 # Interconnection network mode
-inter_config_file   config_fermi_islip.icnt # Interconnection network config file
-icnt_in_buffer_limit                   64 # in_buffer_limit
-icnt_out_buffer_limit                   64 # out_buffer_limit
-icnt_subnets                           2 # subnets
-icnt_arbiter_algo                      1 # arbiter_algo
-icnt_verbose                           0 # inct_verbose
-icnt_grant_cycles                      1 # grant_cycles
-gpgpu_ptx_use_cuobjdump                    1 # Use cuobjdump to extract ptx and sass from binaries
-gpgpu_experimental_lib_support                    0 # Try to extract code from cuda libraries [Broken because of unknown cudaGetExportTable]
-checkpoint_option                      0 #  checkpointing flag (0 = no checkpoint)
-checkpoint_kernel                      1 #  checkpointing during execution of which kernel (1- 1st kernel)
-checkpoint_CTA                         0 #  checkpointing after # of CTA (< less than total CTA)
-resume_option                          0 #  resume flag (0 = no resume)
-resume_kernel                          0 #  Resume from which kernel (1= 1st kernel)
-resume_CTA                             0 #  resume from which CTA 
-checkpoint_CTA_t                       0 #  resume from which CTA 
-checkpoint_insn_Y                      0 #  resume from which CTA 
-gpgpu_ptx_convert_to_ptxplus                    0 # Convert SASS (native ISA) to ptxplus and run ptxplus
-gpgpu_ptx_force_max_capability                   20 # Force maximum compute capability
-gpgpu_ptx_inst_debug_to_file                    0 # Dump executed instructions' debug information to file
-gpgpu_ptx_inst_debug_file       inst_debug.txt # Executed instructions' debug output file
-gpgpu_ptx_inst_debug_thread_uid                    1 # Thread UID for executed instructions' debug output
-gpgpu_simd_model                       1 # 1 = post-dominator
-gpgpu_shader_core_pipeline              1536:32 # shader core pipeline config, i.e., {<nthread>:<warpsize>}
-gpgpu_tex_cache:l1  N:4:128:24,L:R:m:N:L,T:128:4,128:2 # per-shader L1 texture cache  (READ-ONLY) config  {<nsets>:<bsize>:<assoc>,<rep>:<wr>:<alloc>:<wr_alloc>,<mshr>:<N>:<merge>,<mq>:<rf>}
-gpgpu_const_cache:l1 N:64:64:2,L:R:f:N:L,S:2:32,4 # per-shader L1 constant memory cache  (READ-ONLY) config  {<nsets>:<bsize>:<assoc>,<rep>:<wr>:<alloc>:<wr_alloc>,<mshr>:<N>:<merge>,<mq>} 
-gpgpu_cache:il1     N:4:128:4,L:R:f:N:L,S:2:32,4 # shader L1 instruction cache config  {<nsets>:<bsize>:<assoc>,<rep>:<wr>:<alloc>:<wr_alloc>,<mshr>:<N>:<merge>,<mq>} 
-gpgpu_cache:dl1     N:32:128:4,L:L:m:N:H,S:64:8,8 # per-shader L1 data cache config  {<nsets>:<bsize>:<assoc>,<rep>:<wr>:<alloc>:<wr_alloc>,<mshr>:<N>:<merge>,<mq> | none}
-gpgpu_l1_banks                         1 # The number of L1 cache banks
-gpgpu_l1_banks_byte_interleaving                   32 # l1 banks byte interleaving granularity
-gpgpu_l1_banks_hashing_function                    0 # l1 banks hashing function
-gpgpu_l1_latency                      35 # L1 Hit Latency
-gpgpu_smem_latency                    26 # smem Latency
-gpgpu_cache:dl1PrefL1                 none # per-shader L1 data cache config  {<nsets>:<bsize>:<assoc>,<rep>:<wr>:<alloc>:<wr_alloc>,<mshr>:<N>:<merge>,<mq> | none}
-gpgpu_cache:dl1PrefShared                 none # per-shader L1 data cache config  {<nsets>:<bsize>:<assoc>,<rep>:<wr>:<alloc>:<wr_alloc>,<mshr>:<N>:<merge>,<mq> | none}
-gpgpu_gmem_skip_L1D                    0 # global memory access skip L1D cache (implements -Xptxas -dlcm=cg, default=no skip)
-gpgpu_perfect_mem                      0 # enable perfect memory mode (no cache miss)
-n_regfile_gating_group                    4 # group of lanes that should be read/written together)
-gpgpu_clock_gated_reg_file                    0 # enable clock gated reg file for power calculations
-gpgpu_clock_gated_lanes                    0 # enable clock gated lanes for power calculations
-gpgpu_shader_registers                32768 # Number of registers per shader core. Limits number of concurrent CTAs. (default 8192)
-gpgpu_registers_per_block                 8192 # Maximum number of registers per CTA. (default 8192)
-gpgpu_ignore_resources_limitation                    0 # gpgpu_ignore_resources_limitation (default 0)
-gpgpu_shader_cta                       8 # Maximum number of concurrent CTAs in shader (default 8)
-gpgpu_num_cta_barriers                   16 # Maximum number of named barriers per CTA (default 16)
-gpgpu_n_clusters                      15 # number of processing clusters
-gpgpu_n_cores_per_cluster                    1 # number of simd cores per cluster
-gpgpu_n_cluster_ejection_buffer_size                   32 # number of packets in ejection buffer
-gpgpu_n_ldst_response_buffer_size                    2 # number of response packets in ld/st unit ejection buffer
-gpgpu_shmem_per_block                49152 # Size of shared memory per thread block or CTA (default 48kB)
-gpgpu_shmem_size                   49152 # Size of shared memory per shader core (default 16kB)
-gpgpu_adaptive_cache_config                    0 # adaptive_cache_config
-gpgpu_shmem_sizeDefault                49152 # Size of shared memory per shader core (default 16kB)
-gpgpu_shmem_size_PrefL1                16384 # Size of shared memory per shader core (default 16kB)
-gpgpu_shmem_size_PrefShared                16384 # Size of shared memory per shader core (default 16kB)
-gpgpu_shmem_num_banks                   32 # Number of banks in the shared memory in each shader core (default 16)
-gpgpu_shmem_limited_broadcast                    0 # Limit shared memory to do one broadcast per cycle (default on)
-gpgpu_shmem_warp_parts                    1 # Number of portions a warp is divided into for shared memory bank conflict check 
-gpgpu_mem_unit_ports                    1 # The number of memory transactions allowed per core cycle
-gpgpu_shmem_warp_parts                    1 # Number of portions a warp is divided into for shared memory bank conflict check 
-gpgpu_warpdistro_shader                   -1 # Specify which shader core to collect the warp size distribution from
-gpgpu_warp_issue_shader                    0 # Specify which shader core to collect the warp issue distribution from
-gpgpu_local_mem_map                    1 # Mapping from local memory space address to simulated GPU physical address space (default = enabled)
-gpgpu_num_reg_banks                   16 # Number of register banks (default = 8)
-gpgpu_reg_bank_use_warp_id                    0 # Use warp ID in mapping registers to banks (default = off)
-gpgpu_sub_core_model                    0 # Sub Core Volta/Pascal model (default = off)
-gpgpu_enable_specialized_operand_collector                    1 # enable_specialized_operand_collector
-gpgpu_operand_collector_num_units_sp                    6 # number of collector units (default = 4)
-gpgpu_operand_collector_num_units_dp                    0 # number of collector units (default = 0)
-gpgpu_operand_collector_num_units_sfu                    8 # number of collector units (default = 4)
-gpgpu_operand_collector_num_units_int                    0 # number of collector units (default = 0)
-gpgpu_operand_collector_num_units_tensor_core                    4 # number of collector units (default = 4)
-gpgpu_operand_collector_num_units_mem                    2 # number of collector units (default = 2)
-gpgpu_operand_collector_num_units_gen                    0 # number of collector units (default = 0)
-gpgpu_operand_collector_num_in_ports_sp                    2 # number of collector unit in ports (default = 1)
-gpgpu_operand_collector_num_in_ports_dp                    0 # number of collector unit in ports (default = 0)
-gpgpu_operand_collector_num_in_ports_sfu                    1 # number of collector unit in ports (default = 1)
-gpgpu_operand_collector_num_in_ports_int                    0 # number of collector unit in ports (default = 0)
-gpgpu_operand_collector_num_in_ports_tensor_core                    1 # number of collector unit in ports (default = 1)
-gpgpu_operand_collector_num_in_ports_mem                    1 # number of collector unit in ports (default = 1)
-gpgpu_operand_collector_num_in_ports_gen                    0 # number of collector unit in ports (default = 0)
-gpgpu_operand_collector_num_out_ports_sp                    2 # number of collector unit in ports (default = 1)
-gpgpu_operand_collector_num_out_ports_dp                    0 # number of collector unit in ports (default = 0)
-gpgpu_operand_collector_num_out_ports_sfu                    1 # number of collector unit in ports (default = 1)
-gpgpu_operand_collector_num_out_ports_int                    0 # number of collector unit in ports (default = 0)
-gpgpu_operand_collector_num_out_ports_tensor_core                    1 # number of collector unit in ports (default = 1)
-gpgpu_operand_collector_num_out_ports_mem                    1 # number of collector unit in ports (default = 1)
-gpgpu_operand_collector_num_out_ports_gen                    0 # number of collector unit in ports (default = 0)
-gpgpu_coalesce_arch                   20 # Coalescing arch (GT200 = 13, Fermi = 20)
-gpgpu_num_sched_per_core                    2 # Number of warp schedulers per core
-gpgpu_max_insn_issue_per_warp                    1 # Max number of instructions that can be issued per warp in one cycle by scheduler (either 1 or 2)
-gpgpu_dual_issue_diff_exec_units                    1 # should dual issue use two different execution unit resources (Default = 1)
-gpgpu_simt_core_sim_order                    1 # Select the simulation order of cores in a cluster (0=Fix, 1=Round-Robin)
-gpgpu_pipeline_widths 2,0,0,1,1,2,0,0,1,1,2 # Pipeline widths ID_OC_SP,ID_OC_DP,ID_OC_INT,ID_OC_SFU,ID_OC_MEM,OC_EX_SP,OC_EX_DP,OC_EX_INT,OC_EX_SFU,OC_EX_MEM,EX_WB,ID_OC_TENSOR_CORE,OC_EX_TENSOR_CORE
-gpgpu_tensor_core_avail                    0 # Tensor Core Available (default=0)
-gpgpu_num_sp_units                     2 # Number of SP units (default=1)
-gpgpu_num_dp_units                     0 # Number of DP units (default=0)
-gpgpu_num_int_units                    0 # Number of INT units (default=0)
-gpgpu_num_sfu_units                    1 # Number of SF units (default=1)
-gpgpu_num_tensor_core_units                    0 # Number of tensor_core units (default=1)
-gpgpu_num_mem_units                    1 # Number if ldst units (default=1) WARNING: not hooked up to anything
-gpgpu_scheduler                      gto # Scheduler configuration: < lrr | gto | two_level_active > If two_level_active:<num_active_warps>:<inner_prioritization>:<outer_prioritization>For complete list of prioritization values see shader.h enum scheduler_prioritization_typeDefault: gto
-gpgpu_concurrent_kernel_sm                    0 # Support concurrent kernels on a SM (default = disabled)
-gpgpu_perfect_inst_const_cache                    0 # perfect inst and const cache mode, so all inst and const hits in the cache(default = disabled)
-gpgpu_inst_fetch_throughput                    1 # the number of fetched intruction per warp each cycle
-gpgpu_reg_file_port_throughput                    1 # the number ports of the register file
-specialized_unit_1         0,4,4,4,4,BRA # specialized unit config {<enabled>,<num_units>:<latency>:<initiation>,<ID_OC_SPEC>:<OC_EX_SPEC>,<NAME>}
-specialized_unit_2         0,4,4,4,4,BRA # specialized unit config {<enabled>,<num_units>:<latency>:<initiation>,<ID_OC_SPEC>:<OC_EX_SPEC>,<NAME>}
-specialized_unit_3         0,4,4,4,4,BRA # specialized unit config {<enabled>,<num_units>:<latency>:<initiation>,<ID_OC_SPEC>:<OC_EX_SPEC>,<NAME>}
-specialized_unit_4         0,4,4,4,4,BRA # specialized unit config {<enabled>,<num_units>:<latency>:<initiation>,<ID_OC_SPEC>:<OC_EX_SPEC>,<NAME>}
-specialized_unit_5         0,4,4,4,4,BRA # specialized unit config {<enabled>,<num_units>:<latency>:<initiation>,<ID_OC_SPEC>:<OC_EX_SPEC>,<NAME>}
-specialized_unit_6         0,4,4,4,4,BRA # specialized unit config {<enabled>,<num_units>:<latency>:<initiation>,<ID_OC_SPEC>:<OC_EX_SPEC>,<NAME>}
-specialized_unit_7         0,4,4,4,4,BRA # specialized unit config {<enabled>,<num_units>:<latency>:<initiation>,<ID_OC_SPEC>:<OC_EX_SPEC>,<NAME>}
-specialized_unit_8         0,4,4,4,4,BRA # specialized unit config {<enabled>,<num_units>:<latency>:<initiation>,<ID_OC_SPEC>:<OC_EX_SPEC>,<NAME>}
-gpgpu_perf_sim_memcpy                    1 # Fill the L2 cache on memcpy
-gpgpu_simple_dram_model                    0 # simple_dram_model with fixed latency and BW
-gpgpu_dram_scheduler                    1 # 0 = fifo, 1 = FR-FCFS (defaul)
-gpgpu_dram_partition_queues          64:64:64:64 # i2$:$2d:d2$:$2i
-l2_ideal                               0 # Use a ideal L2 cache that always hit
-gpgpu_cache:dl2     S:64:128:8,L:B:m:L:L,A:256:4,4:0,32 # unified banked L2 data cache config  {<nsets>:<bsize>:<assoc>,<rep>:<wr>:<alloc>:<wr_alloc>,<mshr>:<N>:<merge>,<mq>}
-gpgpu_cache:dl2_texture_only                    0 # L2 cache used for texture only
-gpgpu_n_mem                            6 # number of memory modules (e.g. memory controllers) in gpu
-gpgpu_n_sub_partition_per_mchannel                    2 # number of memory subpartition in each memory module
-gpgpu_n_mem_per_ctrlr                    2 # number of memory chips per memory controller
-gpgpu_memlatency_stat                   14 # track and display latency statistics 0x2 enables MC, 0x4 enables queue logs
-gpgpu_frfcfs_dram_sched_queue_size                   64 # 0 = unlimited (default); # entries per chip
-gpgpu_dram_return_queue_size                  116 # 0 = unlimited (default); # entries per chip
-gpgpu_dram_buswidth                    4 # default = 4 bytes (8 bytes per cycle at DDR)
-gpgpu_dram_burst_length                    8 # Burst length of each DRAM request (default = 4 data bus cycle)
-dram_data_command_freq_ratio                    4 # Frequency ratio between DRAM data bus and command bus (default = 2 times, i.e. DDR)
-gpgpu_dram_timing_opt nbk=16:CCD=2:RRD=6:RCD=12:RAS=28:RP=12:RC=40: CL=12:WL=4:CDLR=5:WR=12:nbkgrp=4:CCDL=3:RTPL=2 # DRAM timing parameters = {nbk:tCCD:tRRD:tRCD:tRAS:tRP:tRC:CL:WL:tCDLR:tWR:nbkgrp:tCCDL:tRTPL}
-gpgpu_l2_rop_latency                  120 # ROP queue latency (default 85)
-dram_latency                         100 # DRAM latency (default 30)
-dram_dual_bus_interface                    0 # dual_bus_interface (default = 0) 
-dram_bnk_indexing_policy                    0 # dram_bnk_indexing_policy (0 = normal indexing, 1 = Xoring with the higher bits) (Default = 0)
-dram_bnkgrp_indexing_policy                    1 # dram_bnkgrp_indexing_policy (0 = take higher bits, 1 = take lower bits) (Default = 0)
-dram_seperate_write_queue_enable                    0 # Seperate_Write_Queue_Enable
-dram_write_queue_size             32:28:16 # Write_Queue_Size
-dram_elimnate_rw_turnaround                    0 # elimnate_rw_turnaround i.e set tWTR and tRTW = 0
-icnt_flit_size                        40 # icnt_flit_size
-gpgpu_mem_addr_mapping dramid@8;00000000.00000000.00000000.00000000.0000RRRR.RRRRRRRR.BBBCCCCB.CCSSSSSS # mapping memory address to dram model {dramid@<start bit>;<memory address map>}
-gpgpu_mem_addr_test                    0 # run sweep test to check address mapping for aliased address
-gpgpu_mem_address_mask                    1 # 0 = old addressing mask, 1 = new addressing mask, 2 = new add. mask + flipped bank sel and chip sel bits
-gpgpu_memory_partition_indexing                    0 # 0 = no indexing, 1 = bitwise xoring, 2 = IPoly, 3 = custom indexing
-accelwattch_xml_file accelwattch_sass_sim.xml # AccelWattch XML file
-power_simulation_enabled                    0 # Turn on power simulator (1=On, 0=Off)
-power_per_cycle_dump                    0 # Dump detailed power output each cycle
-hw_perf_file_name            hw_perf.csv # Hardware Performance Statistics file
-hw_perf_bench_name                       # Kernel Name in Hardware Performance Statistics file
-power_simulation_mode                    0 # Switch performance counter input for power simulation (0=Sim, 1=HW, 2=HW-Sim Hybrid)
-dvfs_enabled                           0 # Turn on DVFS for power model
-aggregate_power_stats                    0 # Accumulate power across all kernels
-accelwattch_hybrid_perfsim_L1_RH                    0 # Get L1 Read Hits for Accelwattch-Hybrid from Accel-Sim
-accelwattch_hybrid_perfsim_L1_RM                    0 # Get L1 Read Misses for Accelwattch-Hybrid from Accel-Sim
-accelwattch_hybrid_perfsim_L1_WH                    0 # Get L1 Write Hits for Accelwattch-Hybrid from Accel-Sim
-accelwattch_hybrid_perfsim_L1_WM                    0 # Get L1 Write Misses for Accelwattch-Hybrid from Accel-Sim
-accelwattch_hybrid_perfsim_L2_RH                    0 # Get L2 Read Hits for Accelwattch-Hybrid from Accel-Sim
-accelwattch_hybrid_perfsim_L2_RM                    0 # Get L2 Read Misses for Accelwattch-Hybrid from Accel-Sim
-accelwattch_hybrid_perfsim_L2_WH                    0 # Get L2 Write Hits for Accelwattch-Hybrid from Accel-Sim
-accelwattch_hybrid_perfsim_L2_WM                    0 # Get L2 Write Misses for Accelwattch-Hybrid from Accel-Sim
-accelwattch_hybrid_perfsim_CC_ACC                    0 # Get Constant Cache Acesses for Accelwattch-Hybrid from Accel-Sim
-accelwattch_hybrid_perfsim_SHARED_ACC                    0 # Get Shared Memory Acesses for Accelwattch-Hybrid from Accel-Sim
-accelwattch_hybrid_perfsim_DRAM_RD                    0 # Get DRAM Reads for Accelwattch-Hybrid from Accel-Sim
-accelwattch_hybrid_perfsim_DRAM_WR                    0 # Get DRAM Writes for Accelwattch-Hybrid from Accel-Sim
-accelwattch_hybrid_perfsim_NOC                    0 # Get Interconnect Acesses for Accelwattch-Hybrid from Accel-Sim
-accelwattch_hybrid_perfsim_PIPE_DUTY                    0 # Get Pipeline Duty Cycle Acesses for Accelwattch-Hybrid from Accel-Sim
-accelwattch_hybrid_perfsim_NUM_SM_IDLE                    0 # Get Number of Idle SMs for Accelwattch-Hybrid from Accel-Sim
-accelwattch_hybrid_perfsim_CYCLES                    0 # Get Executed Cycles for Accelwattch-Hybrid from Accel-Sim
-accelwattch_hybrid_perfsim_VOLTAGE                    0 # Get Chip Voltage for Accelwattch-Hybrid from Accel-Sim
-power_trace_enabled                    0 # produce a file for the power trace (1=On, 0=Off)
-power_trace_zlevel                     6 # Compression level of the power trace output log (0=no comp, 9=highest)
-steady_power_levels_enabled                    0 # produce a file for the steady power levels (1=On, 0=Off)
-steady_state_definition                  8:4 # allowed deviation:number of samples
-gpgpu_max_cycle                        0 # terminates gpu simulation early (0 = no limit)
-gpgpu_max_insn                         0 # terminates gpu simulation early (0 = no limit)
-gpgpu_max_cta                          0 # terminates gpu simulation early (0 = no limit)
-gpgpu_max_completed_cta                    0 # terminates gpu simulation early (0 = no limit)
-gpgpu_runtime_stat                   500 # display runtime statistics such as dram utilization {<freq>:<flag>}
-liveness_message_freq                    1 # Minimum number of seconds between simulation liveness messages (0 = always print)
-gpgpu_compute_capability_major                    2 # Major compute capability version number
-gpgpu_compute_capability_minor                    0 # Minor compute capability version number
-gpgpu_flush_l1_cache                    1 # Flush L1 cache at the end of each kernel call
-gpgpu_flush_l2_cache                    0 # Flush L2 cache at the end of each kernel call
-gpgpu_deadlock_detect                    1 # Stop the simulation at deadlock (1=on (default), 0=off)
-gpgpu_ptx_instruction_classification                    0 # if enabled will classify ptx instruction types per kernel (Max 255 kernels now)
-gpgpu_ptx_sim_mode                     0 # Select between Performance (default) or Functional simulation (1)
-gpgpu_clock_domains 700.0:700.0:700.0:924.0 # Clock Domain Frequencies in MhZ {<Core Clock>:<ICNT Clock>:<L2 Clock>:<DRAM Clock>}
-gpgpu_max_concurrent_kernel                    8 # maximum kernels that can run concurrently on GPU
-gpgpu_cflog_interval                    0 # Interval between each snapshot in control flow logger
-visualizer_enabled                     0 # Turn on visualizer output (1=On, 0=Off)
-visualizer_outputfile                 NULL # Specifies the output log file for visualizer
-visualizer_zlevel                      6 # Compression level of the visualizer output log (0=no comp, 9=highest)
-gpgpu_stack_size_limit                 1024 # GPU thread stack size
-gpgpu_heap_size_limit              8388608 # GPU malloc heap size 
-gpgpu_runtime_sync_depth_limit                    2 # GPU device runtime synchronize depth
-gpgpu_runtime_pending_launch_count_limit                 2048 # GPU device runtime pending launch count
-trace_enabled                          0 # Turn on traces
-trace_components                    none # comma seperated list of traces to enable. Complete list found in trace_streams.tup. Default none
-trace_sampling_core                    0 # The core which is printed using CORE_DPRINTF. Default 0
-trace_sampling_memory_partition                   -1 # The memory partition which is printed using MEMPART_DPRINTF. Default -1 (i.e. all)
-enable_ptx_file_line_stats                    1 # Turn on PTX source line statistic profiling. (1 = On)
-ptx_line_stats_filename gpgpu_inst_stats.txt # Output file for PTX source line statistics.
-gpgpu_kernel_launch_latency                    0 # Kernel launch latency in cycles. Default: 0
-gpgpu_cdp_enabled                      0 # Turn on CDP
-gpgpu_TB_launch_latency                    0 # thread block launch latency in cycles. Default: 0
DRAM Timing Options:
nbk                                    16 # number of banks
CCD                                     2 # column to column delay
RRD                                     6 # minimal delay between activation of rows in different banks
RCD                                    12 # row to column delay
RAS                                    28 # time needed to activate row
RP                                     12 # time needed to precharge (deactivate) row
RC                                     40 # row cycle time
CDLR                                    5 # switching from write to read (changes tWTR)
WR                                     12 # last data-in to row precharge
CL                                     12 # CAS latency
WL                                      4 # Write latency
nbkgrp                                  4 # number of bank groups
CCDL                                    3 # column to column delay between accesses to different bank groups
RTPL                                    2 # read to precharge delay between accesses to different bank groups
Total number of memory sub partition = 12
addr_dec_mask[CHIP]  = 0000000000000000 	high:64 low:0
addr_dec_mask[BK]    = 000000000000e100 	high:16 low:8
addr_dec_mask[ROW]   = 000000000fff0000 	high:28 low:16
addr_dec_mask[COL]   = 0000000000001eff 	high:13 low:0
addr_dec_mask[BURST] = 000000000000003f 	high:6 low:0
sub_partition_id_mask = 0000000000000100
GPGPU-Sim uArch: clock freqs: 700000000.000000:700000000.000000:700000000.000000:924000000.000000
GPGPU-Sim uArch: clock periods: 0.00000000142857142857:0.00000000142857142857:0.00000000142857142857:0.00000000108225108225
*** Initializing Memory Statistics ***
GPGPU-Sim uArch: interconnect node map (shaderID+MemID to icntID)
GPGPU-Sim uArch: Memory nodes ID start from index: 15
GPGPU-Sim uArch:    0   1   2   3   4
GPGPU-Sim uArch:    5   6   7   8   9
GPGPU-Sim uArch:   10  11  12  13  14
GPGPU-Sim uArch:   15  16  17  18  19
GPGPU-Sim uArch:   20  21  22  23  24
GPGPU-Sim uArch:   25  26
GPGPU-Sim uArch: interconnect node reverse map (icntID to shaderID+MemID)
GPGPU-Sim uArch: Memory nodes start from ID: 15
GPGPU-Sim uArch:    0   1   2   3   4
GPGPU-Sim uArch:    5   6   7   8   9
GPGPU-Sim uArch:   10  11  12  13  14
GPGPU-Sim uArch:   15  16  17  18  19
GPGPU-Sim uArch:   20  21  22  23  24
GPGPU-Sim uArch:   25  26
b8888742e380197ab37ec37e896c47d9  /afs/cs.wisc.edu/u/r/a/rajesh/public/accel-sim-framework/gpu-simulator/gpgpu-sim/test/mmul
Extracting PTX file and ptxas options    1: mmul.1.sm_30.ptx -arch=sm_30
GPGPU-Sim uArch: performance model initialization complete.
self exe links to: /afs/cs.wisc.edu/u/r/a/rajesh/public/accel-sim-framework/gpu-simulator/gpgpu-sim/test/mmul
self exe links to: /afs/cs.wisc.edu/u/r/a/rajesh/public/accel-sim-framework/gpu-simulator/gpgpu-sim/test/mmul
9.1
GPGPU-Sim PTX: __cudaRegisterFatBinary, fat_cubin_handle = 1, filename=default
self exe links to: /afs/cs.wisc.edu/u/r/a/rajesh/public/accel-sim-framework/gpu-simulator/gpgpu-sim/test/mmul
Running md5sum using "md5sum /afs/cs.wisc.edu/u/r/a/rajesh/public/accel-sim-framework/gpu-simulator/gpgpu-sim/test/mmul "
self exe links to: /afs/cs.wisc.edu/u/r/a/rajesh/public/accel-sim-framework/gpu-simulator/gpgpu-sim/test/mmul
Extracting specific PTX file named mmul.1.sm_30.ptx 
GPGPU-Sim PTX: __cudaRegisterFunction _Z20gpu_matrix_transposePiS_jj : hostFun 0x0x401cc4, fat_cubin_handle = 1
GPGPU-Sim PTX: Parsing mmul.1.sm_30.ptx
GPGPU-Sim PTX: instruction assembly for function '_Z15gpu_matrix_multPiS_S_iii'...   done.
GPGPU-Sim PTX: allocating shared region for "_Z22gpu_square_matrix_multPiS_S_i$__cuda_local_var_17417_33_non_const_tile_a" from 0x0 to 0x400 (shared memory space)
GPGPU-Sim PTX: allocating shared region for "_Z22gpu_square_matrix_multPiS_S_i$__cuda_local_var_17418_33_non_const_tile_b" from 0x400 to 0x800 (shared memory space)
GPGPU-Sim PTX: instruction assembly for function '_Z22gpu_square_matrix_multPiS_S_i'...   done.
GPGPU-Sim PTX: instruction assembly for function '_Z20gpu_matrix_transposePiS_jj'...   done.
GPGPU-Sim PTX: finished parsing EMBEDDED .ptx file mmul.1.sm_30.ptx
GPGPU-Sim PTX: loading globals with explicit initializers... 
GPGPU-Sim PTX: finished loading globals (0 bytes total).
GPGPU-Sim PTX: loading constants with explicit initializers...  done.
GPGPU-Sim PTX: Loading PTXInfo from mmul.1.sm_30.ptx
GPGPU-Sim PTX: Kernel '_Z20gpu_matrix_transposePiS_jj' : regs=7, lmem=0, smem=0, cmem=344
GPGPU-Sim PTX: Kernel '_Z22gpu_square_matrix_multPiS_S_i' : regs=24, lmem=0, smem=2048, cmem=348
GPGPU-Sim PTX: Kernel '_Z15gpu_matrix_multPiS_S_iii' : regs=32, lmem=0, smem=0, cmem=356
GPGPU-Sim PTX: __cudaRegisterFunction _Z22gpu_square_matrix_multPiS_S_i : hostFun 0x0x401bde, fat_cubin_handle = 1
GPGPU-Sim PTX: __cudaRegisterFunction _Z15gpu_matrix_multPiS_S_iii : hostFun 0x0x401ae2, fat_cubin_handle = 1
please type in m n and k
event update
GPGPU-Sim PTX: Setting up arguments for 8 bytes starting at 0x7ffc3862ea78..
GPGPU-Sim PTX: Setting up arguments for 8 bytes starting at 0x7ffc3862ea70..
GPGPU-Sim PTX: Setting up arguments for 8 bytes starting at 0x7ffc3862ea68..
GPGPU-Sim PTX: Setting up arguments for 4 bytes starting at 0x7ffc3862ea64..

GPGPU-Sim PTX: cudaLaunch for 0x0x401bde (mode=performance simulation) on stream 0
GPGPU-Sim PTX: finding reconvergence points for '_Z22gpu_square_matrix_multPiS_S_i'...
GPGPU-Sim PTX: Finding dominators for '_Z22gpu_square_matrix_multPiS_S_i'...
GPGPU-Sim PTX: Finding immediate dominators for '_Z22gpu_square_matrix_multPiS_S_i'...
GPGPU-Sim PTX: Finding postdominators for '_Z22gpu_square_matrix_multPiS_S_i'...
GPGPU-Sim PTX: Finding immediate postdominators for '_Z22gpu_square_matrix_multPiS_S_i'...
GPGPU-Sim PTX: pre-decoding instructions for '_Z22gpu_square_matrix_multPiS_S_i'...
GPGPU-Sim PTX: reconvergence points for _Z22gpu_square_matrix_multPiS_S_i...
GPGPU-Sim PTX:  1 (potential) branch divergence @  PC=0x3a0 (mmul.1.sm_30.ptx:189) @%p1 bra BB1_7;
GPGPU-Sim PTX:    immediate post dominator      @  PC=0x688 (mmul.1.sm_30.ptx:293) shl.b32 %r88, %r1, 4;
GPGPU-Sim PTX:  2 (potential) branch divergence @  PC=0x470 (mmul.1.sm_30.ptx:218) @%p2 bra BB1_4;
GPGPU-Sim PTX:    immediate post dominator      @  PC=0x490 (mmul.1.sm_30.ptx:225) st.shared.u32 [%r4], %r108;
GPGPU-Sim PTX:  3 (potential) branch divergence @  PC=0x4a8 (mmul.1.sm_30.ptx:228) @%p3 bra BB1_6;
GPGPU-Sim PTX:    immediate post dominator      @  PC=0x4c8 (mmul.1.sm_30.ptx:235) st.shared.u32 [%r5], %r109;
GPGPU-Sim PTX:  4 (potential) branch divergence @  PC=0x680 (mmul.1.sm_30.ptx:290) @%p4 bra BB1_2;
GPGPU-Sim PTX:    immediate post dominator      @  PC=0x688 (mmul.1.sm_30.ptx:293) shl.b32 %r88, %r1, 4;
GPGPU-Sim PTX:  5 (potential) branch divergence @  PC=0x6d8 (mmul.1.sm_30.ptx:303) @!%p7 bra BB1_9;
GPGPU-Sim PTX:    immediate post dominator      @  PC=0x710 (mmul.1.sm_30.ptx:314) ret;
GPGPU-Sim PTX:  6 (potential) branch divergence @  PC=0x6e0 (mmul.1.sm_30.ptx:304) bra.uni BB1_8;
GPGPU-Sim PTX:    immediate post dominator      @  PC=0x6e8 (mmul.1.sm_30.ptx:307) mad.lo.s32 %r103, %r90, %r23, %r94;
GPGPU-Sim PTX: ... end of reconvergence points for _Z22gpu_square_matrix_multPiS_S_i
GPGPU-Sim PTX: ... done pre-decoding instructions for '_Z22gpu_square_matrix_multPiS_S_i'.
GPGPU-Sim PTX: pushing kernel '_Z22gpu_square_matrix_multPiS_S_i' to stream 0, gridDim= (13,13,1) blockDim = (16,16,1) 
GPGPU-Sim uArch: Shader 0 bind to kernel 1 '_Z22gpu_square_matrix_multPiS_S_i'
GPGPU-Sim uArch: CTA/core = 5, limited by: regs
GPGPU-Sim uArch: Shader 1 bind to kernel 1 '_Z22gpu_square_matrix_multPiS_S_i'
GPGPU-Sim uArch: Shader 2 bind to kernel 1 '_Z22gpu_square_matrix_multPiS_S_i'
GPGPU-Sim uArch: Shader 3 bind to kernel 1 '_Z22gpu_square_matrix_multPiS_S_i'
GPGPU-Sim uArch: Shader 4 bind to kernel 1 '_Z22gpu_square_matrix_multPiS_S_i'
GPGPU-Sim uArch: Shader 5 bind to kernel 1 '_Z22gpu_square_matrix_multPiS_S_i'
GPGPU-Sim uArch: Shader 6 bind to kernel 1 '_Z22gpu_square_matrix_multPiS_S_i'
GPGPU-Sim uArch: Shader 7 bind to kernel 1 '_Z22gpu_square_matrix_multPiS_S_i'
GPGPU-Sim uArch: Shader 8 bind to kernel 1 '_Z22gpu_square_matrix_multPiS_S_i'
GPGPU-Sim uArch: Shader 9 bind to kernel 1 '_Z22gpu_square_matrix_multPiS_S_i'
GPGPU-Sim uArch: Shader 10 bind to kernel 1 '_Z22gpu_square_matrix_multPiS_S_i'
GPGPU-Sim uArch: Shader 11 bind to kernel 1 '_Z22gpu_square_matrix_multPiS_S_i'
GPGPU-Sim uArch: Shader 12 bind to kernel 1 '_Z22gpu_square_matrix_multPiS_S_i'
GPGPU-Sim uArch: Shader 13 bind to kernel 1 '_Z22gpu_square_matrix_multPiS_S_i'
GPGPU-Sim uArch: Shader 14 bind to kernel 1 '_Z22gpu_square_matrix_multPiS_S_i'
tag_array::access PC: 1216, storedhashedPC=192, status 0, Address:-1073580672, Time 2628
I was here
tag_array::access PC: 1216, storedhashedPC=192, status 0, Address:-1073570688, Time 2641
I was here
tag_array::access PC: 1216, storedhashedPC=192, status 0, Address:-1073577088, Time 2648
I was here
tag_array::access PC: 1216, storedhashedPC=192, status 0, Address:-1073580288, Time 2659
I was here
tag_array::access PC: 1216, storedhashedPC=192, status 0, Address:-1073577088, Time 2665
I was here
tag_array::access PC: 1216, storedhashedPC=192, status 0, Address:-1073574656, Time 2808
I was here
tag_array::access PC: 1216, storedhashedPC=192, status 0, Address:-1073574144, Time 3035
I was here
tag_array::access PC: 1216, storedhashedPC=192, status 0, Address:-1073571072, Time 3164
I was here
tag_array::access PC: 1216, storedhashedPC=192, status 0, Address:-1073574144, Time 3197
I was here
tag_array::access PC: 1160, storedhashedPC=136, status 0, Address:-1073721856, Time 4704
I was here
tag_array::access PC: 1160, storedhashedPC=136, status 0, Address:-1073732992, Time 4705
I was here
tag_array::access PC: 1160, storedhashedPC=136, status 0, Address:-1073728256, Time 4708
I was here
tag_array::access PC: 1160, storedhashedPC=136, status 0, Address:-1073729024, Time 4712
I was here
tag_array::access PC: 1160, storedhashedPC=136, status 0, Address:-1073720192, Time 4712
I was here
tag_array::access PC: 1160, storedhashedPC=136, status 0, Address:-1073737856, Time 4713
I was here
tag_array::access PC: 1160, storedhashedPC=136, status 0, Address:-1073729024, Time 4713
I was here
tag_array::access PC: 1160, storedhashedPC=136, status 0, Address:-1073721856, Time 4713
I was here
tag_array::access PC: 1160, storedhashedPC=136, status 0, Address:-1073736192, Time 4715
I was here
tag_array::access PC: 1160, storedhashedPC=136, status 0, Address:-1073721856, Time 4716
I was here
tag_array::access PC: 1160, storedhashedPC=136, status 0, Address:-1073726592, Time 4718
I was here
tag_array::access PC: 1160, storedhashedPC=136, status 0, Address:-1073721856, Time 4718
I was here
tag_array::access PC: 1160, storedhashedPC=136, status 0, Address:-1073726592, Time 4720
I was here
tag_array::access PC: 1160, storedhashedPC=136, status 0, Address:-1073718656, Time 4721
I was here
tag_array::access PC: 1160, storedhashedPC=136, status 0, Address:-1073721856, Time 4721
I was here
tag_array::access PC: 1160, storedhashedPC=136, status 0, Address:-1073721856, Time 4723
I was here
tag_array::access PC: 1160, storedhashedPC=136, status 0, Address:-1073732224, Time 4724
I was here
tag_array::access PC: 1160, storedhashedPC=136, status 0, Address:-1073716224, Time 4724
I was here
tag_array::access PC: 1160, storedhashedPC=136, status 0, Address:-1073716224, Time 4724
I was here
tag_array::access PC: 1160, storedhashedPC=136, status 0, Address:-1073729792, Time 4725
I was here
tag_array::access PC: 1160, storedhashedPC=136, status 0, Address:-1073718656, Time 4726
tag_array::access PC: 1160, storedhashedPC=136, status 0, Address:-1073726592, Time 4726
I was here
tag_array::access PC: 1160, storedhashedPC=136, status 0, Address:-1073718656, Time 4728
I was here
tag_array::access PC: 1160, storedhashedPC=136, status 0, Address:-1073713024, Time 4730
I was here
tag_array::access PC: 1160, storedhashedPC=136, status 0, Address:-1073703424, Time 4732
I was here
tag_array::access PC: 1160, storedhashedPC=136, status 0, Address:-1073720192, Time 4733
I was here
tag_array::access PC: 1160, storedhashedPC=136, status 0, Address:-1073710592, Time 4734
tag_array::access PC: 1160, storedhashedPC=136, status 0, Address:-1073720192, Time 4736
tag_array::access PC: 1160, storedhashedPC=136, status 0, Address:-1073729024, Time 4736
I was here
tag_array::access PC: 1160, storedhashedPC=136, status 0, Address:-1073699456, Time 4736
tag_array::access PC: 1160, storedhashedPC=136, status 0, Address:-1073712256, Time 4737
tag_array::access PC: 1160, storedhashedPC=136, status 0, Address:-1073706624, Time 4738
tag_array::access PC: 1160, storedhashedPC=136, status 0, Address:-1073725824, Time 4739
I was here
tag_array::access PC: 1160, storedhashedPC=136, status 0, Address:-1073710592, Time 4739
I was here
tag_array::access PC: 1160, storedhashedPC=136, status 0, Address:-1073709056, Time 4740
tag_array::access PC: 1160, storedhashedPC=136, status 0, Address:-1073721856, Time 4741
I was here
tag_array::access PC: 1160, storedhashedPC=136, status 0, Address:-1073737856, Time 4742
I was here
tag_array::access PC: 1160, storedhashedPC=136, status 0, Address:-1073737856, Time 4742
I was here
tag_array::access PC: 1160, storedhashedPC=136, status 0, Address:-1073722624, Time 4742
tag_array::access PC: 1160, storedhashedPC=136, status 0, Address:-1073697024, Time 4742
tag_array::access PC: 1160, storedhashedPC=136, status 0, Address:-1073737856, Time 4743
I was here
tag_array::access PC: 1160, storedhashedPC=136, status 0, Address:-1073700992, Time 4743
tag_array::access PC: 1160, storedhashedPC=136, status 0, Address:-1073704192, Time 4743
I was here
tag_array::access PC: 1160, storedhashedPC=136, status 0, Address:-1073736192, Time 4744
I was here
tag_array::access PC: 1160, storedhashedPC=136, status 0, Address:-1073704192, Time 4744
tag_array::access PC: 1160, storedhashedPC=136, status 0, Address:-1073710592, Time 4745
I was here
tag_array::access PC: 1160, storedhashedPC=136, status 0, Address:-1073721856, Time 4746
tag_array::access PC: 1160, storedhashedPC=136, status 0, Address:-1073706624, Time 4746
tag_array::access PC: 1160, storedhashedPC=136, status 0, Address:-1073729792, Time 4747
I was here
tag_array::access PC: 1160, storedhashedPC=136, status 0, Address:-1073700992, Time 4747
I was here
tag_array::access PC: 1160, storedhashedPC=136, status 0, Address:-1073732224, Time 4747
I was here
tag_array::access PC: 1160, storedhashedPC=136, status 0, Address:-1073710592, Time 4749
tag_array::access PC: 1160, storedhashedPC=136, status 0, Address:-1073710592, Time 4750
tag_array::access PC: 1160, storedhashedPC=136, status 0, Address:-1073716224, Time 4750
I was here
tag_array::access PC: 1160, storedhashedPC=136, status 0, Address:-1073704192, Time 4751
tag_array::access PC: 1160, storedhashedPC=136, status 0, Address:-1073703424, Time 4751
I was here
tag_array::access PC: 1160, storedhashedPC=136, status 0, Address:-1073700992, Time 4751
tag_array::access PC: 1160, storedhashedPC=136, status 0, Address:-1073704192, Time 4753
tag_array::access PC: 1160, storedhashedPC=136, status 0, Address:-1073732224, Time 4754
I was here
tag_array::access PC: 1160, storedhashedPC=136, status 0, Address:-1073694592, Time 4754
I was here
tag_array::access PC: 1160, storedhashedPC=136, status 0, Address:-1073726592, Time 4757
I was here
tag_array::access PC: 1160, storedhashedPC=136, status 0, Address:-1073716224, Time 4759
tag_array::access PC: 1160, storedhashedPC=136, status 0, Address:-1073699456, Time 4759
tag_array::access PC: 1160, storedhashedPC=136, status 0, Address:-1073694592, Time 4759
tag_array::access PC: 1160, storedhashedPC=136, status 0, Address:-1073720192, Time 4760
I was here
tag_array::access PC: 1160, storedhashedPC=136, status 0, Address:-1073720192, Time 4761
I was here
tag_array::access PC: 1160, storedhashedPC=136, status 0, Address:-1073720192, Time 4763
I was here
tag_array::access PC: 1160, storedhashedPC=136, status 0, Address:-1073696256, Time 4763
tag_array::access PC: 1160, storedhashedPC=136, status 0, Address:-1073697024, Time 4764
tag_array::access PC: 1160, storedhashedPC=136, status 0, Address:-1073732224, Time 4765
I was here
tag_array::access PC: 1160, storedhashedPC=136, status 0, Address:-1073721856, Time 4767
I was here
tag_array::access PC: 1160, storedhashedPC=136, status 0, Address:-1073693824, Time 4767
tag_array::access PC: 1160, storedhashedPC=136, status 0, Address:-1073722624, Time 4768
I was here
tag_array::access PC: 1160, storedhashedPC=136, status 0, Address:-1073721856, Time 4769
tag_array::access PC: 1160, storedhashedPC=136, status 0, Address:-1073700992, Time 4771
tag_array::access PC: 1160, storedhashedPC=136, status 0, Address:-1073700992, Time 4771
tag_array::access PC: 1160, storedhashedPC=136, status 0, Address:-1073718656, Time 4772
I was here
tag_array::access PC: 1160, storedhashedPC=136, status 0, Address:-1073699456, Time 4774
tag_array::access PC: 1160, storedhashedPC=136, status 0, Address:-1073721856, Time 4776
tag_array::access PC: 1160, storedhashedPC=136, status 0, Address:-1073721856, Time 4778
I was here
tag_array::access PC: 1160, storedhashedPC=136, status 0, Address:-1073699456, Time 4778
I was here
tag_array::access PC: 1160, storedhashedPC=136, status 0, Address:-1073716224, Time 4780
tag_array::access PC: 1160, storedhashedPC=136, status 0, Address:-1073684992, Time 4782
tag_array::access PC: 1160, storedhashedPC=136, status 0, Address:-1073700992, Time 4782
tag_array::access PC: 1160, storedhashedPC=136, status 0, Address:-1073716224, Time 4785
tag_array::access PC: 1160, storedhashedPC=136, status 0, Address:-1073697024, Time 4786
tag_array::access PC: 1160, storedhashedPC=136, status 0, Address:-1073704192, Time 4789
tag_array::access PC: 1160, storedhashedPC=136, status 0, Address:-1073694592, Time 4794
tag_array::access PC: 1160, storedhashedPC=136, status 0, Address:-1073687424, Time 4802
tag_array::access PC: 1160, storedhashedPC=136, status 0, Address:-1073684992, Time 4803
tag_array::access PC: 1160, storedhashedPC=136, status 0, Address:-1073683456, Time 4806
tag_array::access PC: 1160, storedhashedPC=136, status 0, Address:-1073684992, Time 4823
tag_array::access PC: 1160, storedhashedPC=136, status 0, Address:-1073726592, Time 4831
I was here
tag_array::access PC: 1160, storedhashedPC=136, status 0, Address:-1073725824, Time 4835
I was here
tag_array::access PC: 1160, storedhashedPC=136, status 0, Address:-1073721856, Time 4839
I was here
tag_array::access PC: 1160, storedhashedPC=136, status 0, Address:-1073722624, Time 4840
I was here
tag_array::access PC: 1160, storedhashedPC=136, status 0, Address:-1073699456, Time 4852
tag_array::access PC: 1160, storedhashedPC=136, status 0, Address:-1073681024, Time 4885
tag_array::access PC: 1160, storedhashedPC=136, status 0, Address:-1073691392, Time 4894
I was here
tag_array::access PC: 1160, storedhashedPC=136, status 0, Address:-1073700992, Time 4909
tag_array::access PC: 1160, storedhashedPC=136, status 0, Address:-1073691392, Time 4940
tag_array::access PC: 1160, storedhashedPC=136, status 0, Address:-1073684992, Time 4957
tag_array::access PC: 1160, storedhashedPC=136, status 0, Address:-1073684992, Time 4959
I was here
tag_array::access PC: 1160, storedhashedPC=136, status 0, Address:-1073681024, Time 4964
tag_array::access PC: 1160, storedhashedPC=136, status 0, Address:-1073681792, Time 4997
tag_array::access PC: 1160, storedhashedPC=136, status 0, Address:-1073704192, Time 5005
tag_array::access PC: 1160, storedhashedPC=136, status 0, Address:-1073700992, Time 5044
tag_array::access PC: 1160, storedhashedPC=136, status 0, Address:-1073684992, Time 5044
tag_array::access PC: 1160, storedhashedPC=136, status 0, Address:-1073681024, Time 5070
tag_array::access PC: 1160, storedhashedPC=136, status 0, Address:-1073673856, Time 5077
I was here
tag_array::access PC: 1160, storedhashedPC=136, status 0, Address:-1073675392, Time 5113
I was here
tag_array::access PC: 1160, storedhashedPC=136, status 0, Address:-1073672192, Time 5121
tag_array::access PC: 1160, storedhashedPC=136, status 0, Address:-1073684992, Time 5167
tag_array::access PC: 1160, storedhashedPC=136, status 0, Address:-1073687424, Time 5175
tag_array::access PC: 1160, storedhashedPC=136, status 0, Address:-1073684992, Time 5204
tag_array::access PC: 1160, storedhashedPC=136, status 0, Address:-1073683456, Time 5256
tag_array::access PC: 1160, storedhashedPC=136, status 0, Address:-1073681024, Time 5294
tag_array::access PC: 1160, storedhashedPC=136, status 0, Address:-1073675392, Time 5303
tag_array::access PC: 1216, storedhashedPC=192, status 0, Address:-1073569024, Time 5331
I was here
tag_array::access PC: 1216, storedhashedPC=192, status 0, Address:-1073566208, Time 5366
I was here
tag_array::access PC: 1216, storedhashedPC=192, status 0, Address:-1073563008, Time 5369
I was here
tag_array::access PC: 1160, storedhashedPC=136, status 0, Address:-1073675392, Time 5485
tag_array::access PC: 1160, storedhashedPC=136, status 0, Address:-1073684992, Time 5547
tag_array::access PC: 1216, storedhashedPC=192, status 0, Address:-1073566592, Time 5571
I was here
tag_array::access PC: 1216, storedhashedPC=192, status 0, Address:-1073563392, Time 5574
I was here
tag_array::access PC: 1216, storedhashedPC=192, status 0, Address:-1073556992, Time 5594
I was here
tag_array::access PC: 1160, storedhashedPC=136, status 0, Address:-1073684992, Time 5615
tag_array::access PC: 1216, storedhashedPC=192, status 0, Address:-1073566080, Time 5672
I was here
tag_array::access PC: 1216, storedhashedPC=192, status 0, Address:-1073558016, Time 5721
I was here
tag_array::access PC: 1216, storedhashedPC=192, status 0, Address:-1073563136, Time 5728
I was here
tag_array::access PC: 1216, storedhashedPC=192, status 0, Address:-1073559936, Time 5739
I was here
tag_array::access PC: 1216, storedhashedPC=192, status 0, Address:-1073566720, Time 5748
I was here
tag_array::access PC: 1216, storedhashedPC=192, status 0, Address:-1073567488, Time 5749
I was here
tag_array::access PC: 1216, storedhashedPC=192, status 0, Address:-1073563520, Time 5765
I was here
tag_array::access PC: 1216, storedhashedPC=192, status 0, Address:-1073564288, Time 5766
tag_array::access PC: 1216, storedhashedPC=192, status 0, Address:-1073560320, Time 5785
tag_array::access PC: 1216, storedhashedPC=192, status 0, Address:-1073561216, Time 5833
I was here
tag_array::access PC: 1216, storedhashedPC=192, status 0, Address:-1073568256, Time 5852
I was here
tag_array::access PC: 1216, storedhashedPC=192, status 0, Address:-1073564800, Time 5853
I was here
tag_array::access PC: 1216, storedhashedPC=192, status 0, Address:-1073565056, Time 5857
I was here
tag_array::access PC: 1216, storedhashedPC=192, status 0, Address:-1073564800, Time 5876
I was here
tag_array::access PC: 1216, storedhashedPC=192, status 0, Address:-1073568256, Time 5900
I was here
tag_array::access PC: 1216, storedhashedPC=192, status 0, Address:-1073566080, Time 5930
I was here
tag_array::access PC: 1216, storedhashedPC=192, status 0, Address:-1073562624, Time 5937
I was here
tag_array::access PC: 1216, storedhashedPC=192, status 0, Address:-1073568128, Time 5939
I was here
tag_array::access PC: 1216, storedhashedPC=192, status 0, Address:-1073565056, Time 5945
tag_array::access PC: 1216, storedhashedPC=192, status 0, Address:-1073565824, Time 5946
tag_array::access PC: 1216, storedhashedPC=192, status 0, Address:-1073566080, Time 5951
I was here
tag_array::access PC: 1216, storedhashedPC=192, status 0, Address:-1073559424, Time 5952
tag_array::access PC: 1216, storedhashedPC=192, status 0, Address:-1073562880, Time 5961
I was here
tag_array::access PC: 1216, storedhashedPC=192, status 0, Address:-1073559680, Time 5964
tag_array::access PC: 1216, storedhashedPC=192, status 0, Address:-1073565824, Time 5975
I was here
tag_array::access PC: 1216, storedhashedPC=192, status 0, Address:-1073559424, Time 6002
I was here
tag_array::access PC: 1216, storedhashedPC=192, status 0, Address:-1073566208, Time 6006
I was here
tag_array::access PC: 1216, storedhashedPC=192, status 0, Address:-1073556992, Time 6007
I was here
tag_array::access PC: 1216, storedhashedPC=192, status 0, Address:-1073563392, Time 6013
I was here
tag_array::access PC: 1216, storedhashedPC=192, status 0, Address:-1073566464, Time 6016
tag_array::access PC: 1216, storedhashedPC=192, status 0, Address:-1073563008, Time 6020
I was here
tag_array::access PC: 1216, storedhashedPC=192, status 0, Address:-1073564928, Time 6020
I was here
tag_array::access PC: 1216, storedhashedPC=192, status 0, Address:-1073560064, Time 6022
tag_array::access PC: 1216, storedhashedPC=192, status 0, Address:-1073559808, Time 6027
I was here
tag_array::access PC: 1216, storedhashedPC=192, status 0, Address:-1073556864, Time 6066
tag_array::access PC: 1216, storedhashedPC=192, status 0, Address:-1073561344, Time 6082
I was here
tag_array::access PC: 1216, storedhashedPC=192, status 0, Address:-1073558144, Time 6130
I was here
tag_array::access PC: 1216, storedhashedPC=192, status 0, Address:-1073560064, Time 6154
tag_array::access PC: 1216, storedhashedPC=192, status 0, Address:-1073561344, Time 6189
I was here
tag_array::access PC: 1216, storedhashedPC=192, status 0, Address:-1073558144, Time 6285
I was here
tag_array::access PC: 1216, storedhashedPC=192, status 0, Address:-1073558272, Time 6325
tag_array::access PC: 1160, storedhashedPC=136, status 0, Address:-1073732992, Time 6491
tag_array::access PC: 1160, storedhashedPC=136, status 0, Address:-1073728128, Time 6576
tag_array::access PC: 1160, storedhashedPC=136, status 0, Address:-1073717760, Time 6600
tag_array::access PC: 1160, storedhashedPC=136, status 0, Address:-1073739392, Time 6625
tag_array::access PC: 1160, storedhashedPC=136, status 0, Address:-1073740928, Time 6646
tag_array::access PC: 1160, storedhashedPC=136, status 0, Address:-1073731328, Time 6665
tag_array::access PC: 1160, storedhashedPC=136, status 0, Address:-1073739392, Time 6750
tag_array::access PC: 1216, storedhashedPC=192, status 0, Address:-1073559552, Time 6753
tag_array::access PC: 1160, storedhashedPC=136, status 0, Address:-1073713792, Time 6760
tag_array::access PC: 1160, storedhashedPC=136, status 0, Address:-1073737728, Time 6761
tag_array::access PC: 1160, storedhashedPC=136, status 0, Address:-1073734528, Time 6769
tag_array::access PC: 1160, storedhashedPC=136, status 0, Address:-1073705728, Time 6769
tag_array::access PC: 1160, storedhashedPC=136, status 0, Address:-1073731328, Time 6771
tag_array::access PC: 1160, storedhashedPC=136, status 0, Address:-1073728128, Time 6774
tag_array::access PC: 1160, storedhashedPC=136, status 0, Address:-1073708160, Time 6784
tag_array::access PC: 1216, storedhashedPC=192, status 0, Address:-1073556352, Time 6797
tag_array::access PC: 1160, storedhashedPC=136, status 0, Address:-1073728128, Time 6832
tag_array::access PC: 1160, storedhashedPC=136, status 0, Address:-1073728128, Time 6835
tag_array::access PC: 1160, storedhashedPC=136, status 0, Address:-1073727360, Time 6838
tag_array::access PC: 1160, storedhashedPC=136, status 0, Address:-1073724160, Time 6842
tag_array::access PC: 1160, storedhashedPC=136, status 0, Address:-1073723392, Time 6843
tag_array::access PC: 1160, storedhashedPC=136, status 0, Address:-1073724160, Time 6844
tag_array::access PC: 1160, storedhashedPC=136, status 0, Address:-1073720192, Time 6846
tag_array::access PC: 1160, storedhashedPC=136, status 0, Address:-1073717760, Time 6850
tag_array::access PC: 1160, storedhashedPC=136, status 0, Address:-1073717760, Time 6868
tag_array::access PC: 1160, storedhashedPC=136, status 0, Address:-1073734528, Time 6877
tag_array::access PC: 1160, storedhashedPC=136, status 0, Address:-1073739392, Time 6880
tag_array::access PC: 1160, storedhashedPC=136, status 0, Address:-1073731328, Time 6885
tag_array::access PC: 1160, storedhashedPC=136, status 0, Address:-1073733760, Time 6889
tag_array::access PC: 1160, storedhashedPC=136, status 0, Address:-1073729792, Time 6891
tag_array::access PC: 1160, storedhashedPC=136, status 0, Address:-1073728128, Time 6924
tag_array::access PC: 1160, storedhashedPC=136, status 0, Address:-1073739392, Time 6940
tag_array::access PC: 1160, storedhashedPC=136, status 0, Address:-1073720192, Time 6942
tag_array::access PC: 1160, storedhashedPC=136, status 0, Address:-1073733760, Time 6954
tag_array::access PC: 1160, storedhashedPC=136, status 0, Address:-1073718528, Time 6961
tag_array::access PC: 1160, storedhashedPC=136, status 0, Address:-1073729792, Time 6964
tag_array::access PC: 1216, storedhashedPC=192, status 0, Address:-1073552128, Time 7016
I was here
tag_array::access PC: 1160, storedhashedPC=136, status 0, Address:-1073740928, Time 7028
tag_array::access PC: 1160, storedhashedPC=136, status 0, Address:-1073739392, Time 7031
tag_array::access PC: 1216, storedhashedPC=192, status 0, Address:-1073555328, Time 7031
tag_array::access PC: 1160, storedhashedPC=136, status 0, Address:-1073728128, Time 7038
tag_array::access PC: 1216, storedhashedPC=192, status 0, Address:-1073548928, Time 7039
tag_array::access PC: 1160, storedhashedPC=136, status 0, Address:-1073713792, Time 7072
tag_array::access PC: 1160, storedhashedPC=136, status 0, Address:-1073708160, Time 7079
tag_array::access PC: 1216, storedhashedPC=192, status 0, Address:-1073550208, Time 7085
tag_array::access PC: 1160, storedhashedPC=136, status 0, Address:-1073705728, Time 7089
tag_array::access PC: 1216, storedhashedPC=192, status 0, Address:-1073555072, Time 7110
I was here
tag_array::access PC: 1160, storedhashedPC=136, status 0, Address:-1073724160, Time 7120
tag_array::access PC: 1160, storedhashedPC=136, status 0, Address:-1073732992, Time 7130
tag_array::access PC: 1160, storedhashedPC=136, status 0, Address:-1073740928, Time 7138
tag_array::access PC: 1216, storedhashedPC=192, status 0, Address:-1073553408, Time 7174
tag_array::access PC: 1216, storedhashedPC=192, status 0, Address:-1073547008, Time 7188
tag_array::access PC: 1216, storedhashedPC=192, status 0, Address:-1073543808, Time 7191
tag_array::access PC: 1160, storedhashedPC=136, status 0, Address:-1073708160, Time 7222
tag_array::access PC: 1160, storedhashedPC=136, status 0, Address:-1073704192, Time 7224
tag_array::access PC: 1160, storedhashedPC=136, status 0, Address:-1073724160, Time 7231
tag_array::access PC: 1160, storedhashedPC=136, status 0, Address:-1073728128, Time 7244
tag_array::access PC: 1216, storedhashedPC=192, status 0, Address:-1073553536, Time 7272
tag_array::access PC: 1160, storedhashedPC=136, status 0, Address:-1073713792, Time 7312
tag_array::access PC: 1216, storedhashedPC=192, status 0, Address:-1073554816, Time 7314
tag_array::access PC: 1160, storedhashedPC=136, status 0, Address:-1073708160, Time 7326
tag_array::access PC: 1216, storedhashedPC=192, status 0, Address:-1073553792, Time 7363
I was here
tag_array::access PC: 1216, storedhashedPC=192, status 0, Address:-1073551616, Time 7364
tag_array::access PC: 1160, storedhashedPC=136, status 0, Address:-1073708928, Time 7386
tag_array::access PC: 1216, storedhashedPC=192, status 0, Address:-1073545216, Time 7403
tag_array::access PC: 1216, storedhashedPC=192, status 0, Address:-1073548416, Time 7409
tag_array::access PC: 1216, storedhashedPC=192, status 0, Address:-1073554944, Time 7417
I was here
tag_array::access PC: 1216, storedhashedPC=192, status 0, Address:-1073551744, Time 7448
I was here
tag_array::access PC: 1216, storedhashedPC=192, status 0, Address:-1073548544, Time 7451
I was here
tag_array::access PC: 1216, storedhashedPC=192, status 0, Address:-1073558400, Time 7482
tag_array::access PC: 1216, storedhashedPC=192, status 0, Address:-1073545344, Time 7487
tag_array::access PC: 1160, storedhashedPC=136, status 0, Address:-1073708160, Time 7499
tag_array::access PC: 1160, storedhashedPC=136, status 0, Address:-1073712128, Time 7517
tag_array::access PC: 1160, storedhashedPC=136, status 0, Address:-1073692160, Time 7523
tag_array::access PC: 1160, storedhashedPC=136, status 0, Address:-1073708928, Time 7524
tag_array::access PC: 1216, storedhashedPC=192, status 0, Address:-1073544320, Time 7525
tag_array::access PC: 1216, storedhashedPC=192, status 0, Address:-1073555200, Time 7526
I was here
tag_array::access PC: 1216, storedhashedPC=192, status 0, Address:-1073545088, Time 7526
tag_array::access PC: 1216, storedhashedPC=192, status 0, Address:-1073547520, Time 7531
tag_array::access PC: 1216, storedhashedPC=192, status 0, Address:-1073548288, Time 7532
tag_array::access PC: 1216, storedhashedPC=192, status 0, Address:-1073552000, Time 7542
I was here
tag_array::access PC: 1216, storedhashedPC=192, status 0, Address:-1073553920, Time 7561
tag_array::access PC: 1216, storedhashedPC=192, status 0, Address:-1073554688, Time 7562
tag_array::access PC: 1216, storedhashedPC=192, status 0, Address:-1073550720, Time 7576
tag_array::access PC: 1216, storedhashedPC=192, status 0, Address:-1073551488, Time 7577
tag_array::access PC: 1216, storedhashedPC=192, status 0, Address:-1073548800, Time 7588
tag_array::access PC: 1160, storedhashedPC=136, status 0, Address:-1073692928, Time 7589
tag_array::access PC: 1216, storedhashedPC=192, status 0, Address:-1073545600, Time 7597
tag_array::access PC: 1160, storedhashedPC=136, status 0, Address:-1073692160, Time 7619
tag_array::access PC: 1160, storedhashedPC=136, status 0, Address:-1073713792, Time 7635
tag_array::access PC: 1160, storedhashedPC=136, status 0, Address:-1073710592, Time 7648
tag_array::access PC: 1216, storedhashedPC=192, status 0, Address:-1073553280, Time 7674
tag_array::access PC: 1216, storedhashedPC=192, status 0, Address:-1073550080, Time 7684
tag_array::access PC: 1216, storedhashedPC=192, status 0, Address:-1073546880, Time 7691
tag_array::access PC: 1216, storedhashedPC=192, status 0, Address:-1073553152, Time 7703
tag_array::access PC: 1216, storedhashedPC=192, status 0, Address:-1073555200, Time 7736
tag_array::access PC: 1160, storedhashedPC=136, status 0, Address:-1073708160, Time 7756
tag_array::access PC: 1216, storedhashedPC=192, status 0, Address:-1073549952, Time 7759
tag_array::access PC: 1216, storedhashedPC=192, status 0, Address:-1073555200, Time 7762
tag_array::access PC: 1216, storedhashedPC=192, status 0, Address:-1073546752, Time 7762
tag_array::access PC: 1216, storedhashedPC=192, status 0, Address:-1073543552, Time 7766
tag_array::access PC: 1216, storedhashedPC=192, status 0, Address:-1073552000, Time 7778
tag_array::access PC: 1216, storedhashedPC=192, status 0, Address:-1073543680, Time 7782
tag_array::access PC: 1216, storedhashedPC=192, status 0, Address:-1073548800, Time 7782
tag_array::access PC: 1216, storedhashedPC=192, status 0, Address:-1073554944, Time 7784
I was here
tag_array::access PC: 1216, storedhashedPC=192, status 0, Address:-1073553408, Time 7794
tag_array::access PC: 1160, storedhashedPC=136, status 0, Address:-1073740928, Time 7794
tag_array::access PC: 1216, storedhashedPC=192, status 0, Address:-1073550208, Time 7798
tag_array::access PC: 1216, storedhashedPC=192, status 0, Address:-1073545600, Time 7799
tag_array::access PC: 1160, storedhashedPC=136, status 0, Address:-1073739264, Time 7801
tag_array::access PC: 1160, storedhashedPC=136, status 0, Address:-1073739264, Time 7803
tag_array::access PC: 1160, storedhashedPC=136, status 0, Address:-1073708160, Time 7805
tag_array::access PC: 1160, storedhashedPC=136, status 0, Address:-1073737728, Time 7807
tag_array::access PC: 1160, storedhashedPC=136, status 0, Address:-1073736064, Time 7807
tag_array::access PC: 1160, storedhashedPC=136, status 0, Address:-1073738496, Time 7808
tag_array::access PC: 1160, storedhashedPC=136, status 0, Address:-1073732864, Time 7809
tag_array::access PC: 1160, storedhashedPC=136, status 0, Address:-1073731328, Time 7813
tag_array::access PC: 1160, storedhashedPC=136, status 0, Address:-1073734528, Time 7816
tag_array::access PC: 1160, storedhashedPC=136, status 0, Address:-1073735296, Time 7817
tag_array::access PC: 1160, storedhashedPC=136, status 0, Address:-1073729664, Time 7821
tag_array::access PC: 1160, storedhashedPC=136, status 0, Address:-1073738496, Time 7827
tag_array::access PC: 1160, storedhashedPC=136, status 0, Address:-1073729664, Time 7828
tag_array::access PC: 1160, storedhashedPC=136, status 0, Address:-1073734528, Time 7831
tag_array::access PC: 1160, storedhashedPC=136, status 0, Address:-1073735296, Time 7832
tag_array::access PC: 1216, storedhashedPC=192, status 0, Address:-1073550720, Time 7835
tag_array::access PC: 1216, storedhashedPC=192, status 0, Address:-1073551488, Time 7836
tag_array::access PC: 1160, storedhashedPC=136, status 0, Address:-1073731328, Time 7838
tag_array::access PC: 1160, storedhashedPC=136, status 0, Address:-1073732096, Time 7839
tag_array::access PC: 1216, storedhashedPC=192, status 0, Address:-1073545344, Time 7845
tag_array::access PC: 1216, storedhashedPC=192, status 0, Address:-1073552000, Time 7848
tag_array::access PC: 1216, storedhashedPC=192, status 0, Address:-1073553920, Time 7854
tag_array::access PC: 1216, storedhashedPC=192, status 0, Address:-1073554688, Time 7855
tag_array::access PC: 1160, storedhashedPC=136, status 0, Address:-1073698560, Time 7863
tag_array::access PC: 1216, storedhashedPC=192, status 0, Address:-1073547520, Time 7866
tag_array::access PC: 1160, storedhashedPC=136, status 0, Address:-1073713792, Time 7867
tag_array::access PC: 1216, storedhashedPC=192, status 0, Address:-1073548288, Time 7867
tag_array::access PC: 1160, storedhashedPC=136, status 0, Address:-1073692160, Time 7872
tag_array::access PC: 1216, storedhashedPC=192, status 0, Address:-1073550592, Time 7873
tag_array::access PC: 1216, storedhashedPC=192, status 0, Address:-1073547008, Time 7880
tag_array::access PC: 1160, storedhashedPC=136, status 0, Address:-1073724928, Time 7889
tag_array::access PC: 1160, storedhashedPC=136, status 0, Address:-1073726464, Time 7891
tag_array::access PC: 1216, storedhashedPC=192, status 0, Address:-1073544320, Time 7896
tag_array::access PC: 1216, storedhashedPC=192, status 0, Address:-1073545088, Time 7897
tag_array::access PC: 1160, storedhashedPC=136, status 0, Address:-1073722496, Time 7897
tag_array::access PC: 1160, storedhashedPC=136, status 0, Address:-1073720064, Time 7900
tag_array::access PC: 1160, storedhashedPC=136, status 0, Address:-1073718528, Time 7905
tag_array::access PC: 1216, storedhashedPC=192, status 0, Address:-1073553792, Time 7906
tag_array::access PC: 1160, storedhashedPC=136, status 0, Address:-1073719296, Time 7906
tag_array::access PC: 1216, storedhashedPC=192, status 0, Address:-1073548800, Time 7908
tag_array::access PC: 1160, storedhashedPC=136, status 0, Address:-1073710592, Time 7913
tag_array::access PC: 1160, storedhashedPC=136, status 0, Address:-1073716864, Time 7913
tag_array::access PC: 1216, storedhashedPC=192, status 0, Address:-1073543808, Time 7920
tag_array::access PC: 1216, storedhashedPC=192, status 0, Address:-1073545600, Time 7922
tag_array::access PC: 1216, storedhashedPC=192, status 0, Address:-1073547392, Time 7924
tag_array::access PC: 1216, storedhashedPC=192, status 0, Address:-1073551744, Time 7929
tag_array::access PC: 1160, storedhashedPC=136, status 0, Address:-1073740928, Time 7940
tag_array::access PC: 1160, storedhashedPC=136, status 0, Address:-1073737728, Time 7943
tag_array::access PC: 1160, storedhashedPC=136, status 0, Address:-1073738496, Time 7944
tag_array::access PC: 1160, storedhashedPC=136, status 0, Address:-1073739264, Time 7945
tag_array::access PC: 1216, storedhashedPC=192, status 0, Address:-1073553664, Time 7945
tag_array::access PC: 1160, storedhashedPC=136, status 0, Address:-1073734528, Time 7948
tag_array::access PC: 1160, storedhashedPC=136, status 0, Address:-1073735296, Time 7949
tag_array::access PC: 1160, storedhashedPC=136, status 0, Address:-1073736064, Time 7950
tag_array::access PC: 1160, storedhashedPC=136, status 0, Address:-1073708160, Time 7951
tag_array::access PC: 1160, storedhashedPC=136, status 0, Address:-1073731328, Time 7953
tag_array::access PC: 1160, storedhashedPC=136, status 0, Address:-1073732096, Time 7954
tag_array::access PC: 1160, storedhashedPC=136, status 0, Address:-1073732864, Time 7955
tag_array::access PC: 1160, storedhashedPC=136, status 0, Address:-1073729664, Time 7957
tag_array::access PC: 1216, storedhashedPC=192, status 0, Address:-1073554816, Time 7960
tag_array::access PC: 1216, storedhashedPC=192, status 0, Address:-1073544192, Time 7963
tag_array::access PC: 1216, storedhashedPC=192, status 0, Address:-1073553536, Time 7970
I was here
tag_array::access PC: 1216, storedhashedPC=192, status 0, Address:-1073550336, Time 7974
tag_array::access PC: 1160, storedhashedPC=136, status 0, Address:-1073740928, Time 7977
tag_array::access PC: 1216, storedhashedPC=192, status 0, Address:-1073548544, Time 7979
tag_array::access PC: 1160, storedhashedPC=136, status 0, Address:-1073739264, Time 7997
tag_array::access PC: 1216, storedhashedPC=192, status 0, Address:-1073551616, Time 7998
tag_array::access PC: 1160, storedhashedPC=136, status 0, Address:-1073740928, Time 8000
tag_array::access PC: 1160, storedhashedPC=136, status 0, Address:-1073731328, Time 8001
tag_array::access PC: 1216, storedhashedPC=192, status 0, Address:-1073545216, Time 8002
tag_array::access PC: 1160, storedhashedPC=136, status 0, Address:-1073737728, Time 8004
tag_array::access PC: 1160, storedhashedPC=136, status 0, Address:-1073738496, Time 8005
tag_array::access PC: 1160, storedhashedPC=136, status 0, Address:-1073729664, Time 8006
tag_array::access PC: 1160, storedhashedPC=136, status 0, Address:-1073736064, Time 8009
tag_array::access PC: 1160, storedhashedPC=136, status 0, Address:-1073732864, Time 8012
tag_array::access PC: 1216, storedhashedPC=192, status 0, Address:-1073548416, Time 8020
tag_array::access PC: 1160, storedhashedPC=136, status 0, Address:-1073732096, Time 8021
tag_array::access PC: 1216, storedhashedPC=192, status 0, Address:-1073550464, Time 8039
tag_array::access PC: 1216, storedhashedPC=192, status 0, Address:-1073547136, Time 8062
tag_array::access PC: 1216, storedhashedPC=192, status 0, Address:-1073543936, Time 8066
tag_array::access PC: 1216, storedhashedPC=192, status 0, Address:-1073547264, Time 8078
tag_array::access PC: 1216, storedhashedPC=192, status 0, Address:-1073553664, Time 8100
I was here
tag_array::access PC: 1160, storedhashedPC=136, status 0, Address:-1073739264, Time 8111
tag_array::access PC: 1160, storedhashedPC=136, status 0, Address:-1073740928, Time 8116
tag_array::access PC: 1216, storedhashedPC=192, status 0, Address:-1073544064, Time 8118
tag_array::access PC: 1160, storedhashedPC=136, status 0, Address:-1073737728, Time 8123
tag_array::access PC: 1160, storedhashedPC=136, status 0, Address:-1073738496, Time 8124
tag_array::access PC: 1160, storedhashedPC=136, status 0, Address:-1073734528, Time 8129
tag_array::access PC: 1216, storedhashedPC=192, status 0, Address:-1073552256, Time 8129
tag_array::access PC: 1160, storedhashedPC=136, status 0, Address:-1073735296, Time 8130
tag_array::access PC: 1216, storedhashedPC=192, status 0, Address:-1073553024, Time 8130
tag_array::access PC: 1216, storedhashedPC=192, status 0, Address:-1073555072, Time 8133
tag_array::access PC: 1216, storedhashedPC=192, status 0, Address:-1073551872, Time 8137
tag_array::access PC: 1160, storedhashedPC=136, status 0, Address:-1073740928, Time 8143
tag_array::access PC: 1160, storedhashedPC=136, status 0, Address:-1073739264, Time 8147
tag_array::access PC: 1160, storedhashedPC=136, status 0, Address:-1073737728, Time 8150
tag_array::access PC: 1160, storedhashedPC=136, status 0, Address:-1073738496, Time 8151
tag_array::access PC: 1160, storedhashedPC=136, status 0, Address:-1073736064, Time 8152
tag_array::access PC: 1216, storedhashedPC=192, status 0, Address:-1073553152, Time 8154
I was here
tag_array::access PC: 1160, storedhashedPC=136, status 0, Address:-1073729664, Time 8162
tag_array::access PC: 1160, storedhashedPC=136, status 0, Address:-1073734528, Time 8163
tag_array::access PC: 1160, storedhashedPC=136, status 0, Address:-1073732864, Time 8165
tag_array::access PC: 1160, storedhashedPC=136, status 0, Address:-1073731328, Time 8165
tag_array::access PC: 1216, storedhashedPC=192, status 0, Address:-1073550464, Time 8167
I was here
tag_array::access PC: 1216, storedhashedPC=192, status 0, Address:-1073555456, Time 8173
tag_array::access PC: 1216, storedhashedPC=192, status 0, Address:-1073555328, Time 8181
tag_array::access PC: 1216, storedhashedPC=192, status 0, Address:-1073548672, Time 8190
tag_array::access PC: 1216, storedhashedPC=192, status 0, Address:-1073549952, Time 8200
I was here
tag_array::access PC: 1160, storedhashedPC=136, status 0, Address:-1073724928, Time 8207
tag_array::access PC: 1160, storedhashedPC=136, status 0, Address:-1073726464, Time 8210
tag_array::access PC: 1160, storedhashedPC=136, status 0, Address:-1073724928, Time 8217
tag_array::access PC: 1160, storedhashedPC=136, status 0, Address:-1073728896, Time 8217
tag_array::access PC: 1160, storedhashedPC=136, status 0, Address:-1073712128, Time 8222
tag_array::access PC: 1160, storedhashedPC=136, status 0, Address:-1073712896, Time 8223
tag_array::access PC: 1160, storedhashedPC=136, status 0, Address:-1073722496, Time 8224
tag_array::access PC: 1160, storedhashedPC=136, status 0, Address:-1073710464, Time 8224
tag_array::access PC: 1160, storedhashedPC=136, status 0, Address:-1073722496, Time 8231
tag_array::access PC: 1160, storedhashedPC=136, status 0, Address:-1073718528, Time 8231
tag_array::access PC: 1160, storedhashedPC=136, status 0, Address:-1073719296, Time 8232
tag_array::access PC: 1160, storedhashedPC=136, status 0, Address:-1073720064, Time 8237
tag_array::access PC: 1160, storedhashedPC=136, status 0, Address:-1073709696, Time 8237
tag_array::access PC: 1216, storedhashedPC=192, status 0, Address:-1073549056, Time 8240
tag_array::access PC: 1160, storedhashedPC=136, status 0, Address:-1073718528, Time 8241
tag_array::access PC: 1216, storedhashedPC=192, status 0, Address:-1073549824, Time 8241
tag_array::access PC: 1160, storedhashedPC=136, status 0, Address:-1073719296, Time 8242
tag_array::access PC: 1216, storedhashedPC=192, status 0, Address:-1073545856, Time 8243
tag_array::access PC: 1160, storedhashedPC=136, status 0, Address:-1073704064, Time 8243
tag_array::access PC: 1216, storedhashedPC=192, status 0, Address:-1073546624, Time 8244
tag_array::access PC: 1160, storedhashedPC=136, status 0, Address:-1073705728, Time 8247
tag_array::access PC: 1160, storedhashedPC=136, status 0, Address:-1073706496, Time 8248
tag_array::access PC: 1216, storedhashedPC=192, status 0, Address:-1073547264, Time 8250
tag_array::access PC: 1160, storedhashedPC=136, status 0, Address:-1073720064, Time 8251
tag_array::access PC: 1216, storedhashedPC=192, status 0, Address:-1073552128, Time 8251
tag_array::access PC: 1160, storedhashedPC=136, status 0, Address:-1073716864, Time 8253
tag_array::access PC: 1216, storedhashedPC=192, status 0, Address:-1073545472, Time 8256
tag_array::access PC: 1160, storedhashedPC=136, status 0, Address:-1073726464, Time 8278
tag_array::access PC: 1216, storedhashedPC=192, status 0, Address:-1073546752, Time 8278
I was here
tag_array::access PC: 1160, storedhashedPC=136, status 0, Address:-1073723264, Time 8287
tag_array::access PC: 1216, storedhashedPC=192, status 0, Address:-1073544064, Time 8288
tag_array::access PC: 1160, storedhashedPC=136, status 0, Address:-1073724928, Time 8294
tag_array::access PC: 1160, storedhashedPC=136, status 0, Address:-1073739264, Time 8295
tag_array::access PC: 1160, storedhashedPC=136, status 0, Address:-1073725696, Time 8295
tag_array::access PC: 1160, storedhashedPC=136, status 0, Address:-1073740928, Time 8303
tag_array::access PC: 1160, storedhashedPC=136, status 0, Address:-1073721728, Time 8308
tag_array::access PC: 1160, storedhashedPC=136, status 0, Address:-1073722496, Time 8309
tag_array::access PC: 1160, storedhashedPC=136, status 0, Address:-1073716864, Time 8310
tag_array::access PC: 1216, storedhashedPC=192, status 0, Address:-1073548928, Time 8311
tag_array::access PC: 1160, storedhashedPC=136, status 0, Address:-1073737728, Time 8312
tag_array::access PC: 1160, storedhashedPC=136, status 0, Address:-1073738496, Time 8313
tag_array::access PC: 1160, storedhashedPC=136, status 0, Address:-1073736064, Time 8317
tag_array::access PC: 1160, storedhashedPC=136, status 0, Address:-1073732864, Time 8320
tag_array::access PC: 1160, storedhashedPC=136, status 0, Address:-1073718528, Time 8320
tag_array::access PC: 1160, storedhashedPC=136, status 0, Address:-1073719296, Time 8321
tag_array::access PC: 1160, storedhashedPC=136, status 0, Address:-1073732096, Time 8328
tag_array::access PC: 1216, storedhashedPC=192, status 0, Address:-1073543552, Time 8332
tag_array::access PC: 1216, storedhashedPC=192, status 0, Address:-1073545728, Time 8363
tag_array::access PC: 1160, storedhashedPC=136, status 0, Address:-1073740928, Time 8371
tag_array::access PC: 1160, storedhashedPC=136, status 0, Address:-1073728128, Time 8372
tag_array::access PC: 1160, storedhashedPC=136, status 0, Address:-1073728896, Time 8373
tag_array::access PC: 1160, storedhashedPC=136, status 0, Address:-1073739264, Time 8375
tag_array::access PC: 1160, storedhashedPC=136, status 0, Address:-1073724928, Time 8375
tag_array::access PC: 1160, storedhashedPC=136, status 0, Address:-1073736064, Time 8378
tag_array::access PC: 1160, storedhashedPC=136, status 0, Address:-1073726464, Time 8378
tag_array::access PC: 1160, storedhashedPC=136, status 0, Address:-1073737728, Time 8381
tag_array::access PC: 1160, storedhashedPC=136, status 0, Address:-1073738496, Time 8382
tag_array::access PC: 1160, storedhashedPC=136, status 0, Address:-1073732864, Time 8383
tag_array::access PC: 1160, storedhashedPC=136, status 0, Address:-1073734528, Time 8387
tag_array::access PC: 1160, storedhashedPC=136, status 0, Address:-1073735296, Time 8388
tag_array::access PC: 1160, storedhashedPC=136, status 0, Address:-1073719296, Time 8388
tag_array::access PC: 1160, storedhashedPC=136, status 0, Address:-1073723264, Time 8391
tag_array::access PC: 1160, storedhashedPC=136, status 0, Address:-1073731328, Time 8400
tag_array::access PC: 1160, storedhashedPC=136, status 0, Address:-1073732096, Time 8401
tag_array::access PC: 1160, storedhashedPC=136, status 0, Address:-1073716864, Time 8403
tag_array::access PC: 1160, storedhashedPC=136, status 0, Address:-1073740928, Time 8411
tag_array::access PC: 1160, storedhashedPC=136, status 0, Address:-1073689728, Time 8411
tag_array::access PC: 1160, storedhashedPC=136, status 0, Address:-1073739264, Time 8413
tag_array::access PC: 1160, storedhashedPC=136, status 0, Address:-1073738496, Time 8417
tag_array::access PC: 1160, storedhashedPC=136, status 0, Address:-1073736064, Time 8418
tag_array::access PC: 1160, storedhashedPC=136, status 0, Address:-1073732864, Time 8421
tag_array::access PC: 1160, storedhashedPC=136, status 0, Address:-1073686528, Time 8424
tag_array::access PC: 1160, storedhashedPC=136, status 0, Address:-1073732096, Time 8432
tag_array::access PC: 1160, storedhashedPC=136, status 0, Address:-1073689728, Time 8458
tag_array::access PC: 1160, storedhashedPC=136, status 0, Address:-1073689728, Time 8458
tag_array::access PC: 1160, storedhashedPC=136, status 0, Address:-1073679360, Time 8459
tag_array::access PC: 1160, storedhashedPC=136, status 0, Address:-1073679360, Time 8470
tag_array::access PC: 1216, storedhashedPC=192, status 0, Address:-1073539328, Time 8476
tag_array::access PC: 1216, storedhashedPC=192, status 0, Address:-1073542528, Time 8485
tag_array::access PC: 1160, storedhashedPC=136, status 0, Address:-1073726464, Time 8495
tag_array::access PC: 1160, storedhashedPC=136, status 0, Address:-1073724928, Time 8498
tag_array::access PC: 1160, storedhashedPC=136, status 0, Address:-1073722496, Time 8512
tag_array::access PC: 1160, storedhashedPC=136, status 0, Address:-1073719296, Time 8515
tag_array::access PC: 1160, storedhashedPC=136, status 0, Address:-1073716864, Time 8517
tag_array::access PC: 1216, storedhashedPC=192, status 0, Address:-1073542528, Time 8521
tag_array::access PC: 1160, storedhashedPC=136, status 0, Address:-1073740928, Time 8530
tag_array::access PC: 1160, storedhashedPC=136, status 0, Address:-1073740928, Time 8531
tag_array::access PC: 1216, storedhashedPC=192, status 0, Address:-1073539328, Time 8533
tag_array::access PC: 1160, storedhashedPC=136, status 0, Address:-1073728896, Time 8535
tag_array::access PC: 1160, storedhashedPC=136, status 0, Address:-1073737728, Time 8535
tag_array::access PC: 1160, storedhashedPC=136, status 0, Address:-1073738496, Time 8536
tag_array::access PC: 1160, storedhashedPC=136, status 0, Address:-1073732864, Time 8536
tag_array::access PC: 1160, storedhashedPC=136, status 0, Address:-1073724928, Time 8537
tag_array::access PC: 1216, storedhashedPC=192, status 0, Address:-1073536128, Time 8537
tag_array::access PC: 1160, storedhashedPC=136, status 0, Address:-1073716864, Time 8541
tag_array::access PC: 1216, storedhashedPC=192, status 0, Address:-1073532928, Time 8541
tag_array::access PC: 1160, storedhashedPC=136, status 0, Address:-1073734528, Time 8542
tag_array::access PC: 1160, storedhashedPC=136, status 0, Address:-1073735296, Time 8543
tag_array::access PC: 1160, storedhashedPC=136, status 0, Address:-1073722496, Time 8546
tag_array::access PC: 1160, storedhashedPC=136, status 0, Address:-1073710464, Time 8547
tag_array::access PC: 1160, storedhashedPC=136, status 0, Address:-1073729664, Time 8548
tag_array::access PC: 1160, storedhashedPC=136, status 0, Address:-1073720064, Time 8550
tag_array::access PC: 1160, storedhashedPC=136, status 0, Address:-1073712128, Time 8550
tag_array::access PC: 1160, storedhashedPC=136, status 0, Address:-1073712896, Time 8551
tag_array::access PC: 1160, storedhashedPC=136, status 0, Address:-1073731328, Time 8553
tag_array::access PC: 1160, storedhashedPC=136, status 0, Address:-1073734528, Time 8554
tag_array::access PC: 1216, storedhashedPC=192, status 0, Address:-1073539072, Time 8555
tag_array::access PC: 1160, storedhashedPC=136, status 0, Address:-1073718528, Time 8558
tag_array::access PC: 1160, storedhashedPC=136, status 0, Address:-1073709696, Time 8558
tag_array::access PC: 1160, storedhashedPC=136, status 0, Address:-1073719296, Time 8559
tag_array::access PC: 1160, storedhashedPC=136, status 0, Address:-1073729664, Time 8560
tag_array::access PC: 1160, storedhashedPC=136, status 0, Address:-1073704064, Time 8564
tag_array::access PC: 1160, storedhashedPC=136, status 0, Address:-1073728128, Time 8565
tag_array::access PC: 1160, storedhashedPC=136, status 0, Address:-1073728896, Time 8566
tag_array::access PC: 1160, storedhashedPC=136, status 0, Address:-1073720064, Time 8569
tag_array::access PC: 1160, storedhashedPC=136, status 0, Address:-1073724928, Time 8572
tag_array::access PC: 1160, storedhashedPC=136, status 0, Address:-1073725696, Time 8573
tag_array::access PC: 1216, storedhashedPC=192, status 0, Address:-1073553280, Time 8578
[...]
dram[2]:        624       628       659       607       474       410       659       606       470       434       473       409       427       336       316       328
dram[3]:        567       599       582       597       424       412       575       501       420       401       369       385       420       431       360       381
dram[4]:        665       620       661       584       436       411       636       588       463       441       389       454       436       495       412       465
dram[5]:        619       560       616       569       471       349       525       552       462       379       485       345       450       325       392       342
Memory Partition 0: 
Cache L2_bank_000:
MSHR contents

Cache L2_bank_001:
MSHR contents

In Dram Latency Queue (total = 0): 
DRAM[0]: 16 bks, busW=4 BL=8 CL=12, tRRD=6 tCCD=2, tRCD=12 tRAS=28 tRP=12 tRC=40
n_cmd=94907 n_nop=94895 n_act=2 n_pre=0 n_ref_event=0 n_req=10 n_rd=10 n_rd_L2_A=0 n_write=0 n_wr_bk=0 bw_util=0.0002107
n_activity=101 dram_eff=0.198
bk0: 2a 94893i bk1: 8a 94883i bk2: 0a 94906i bk3: 0a 94907i bk4: 0a 94907i bk5: 0a 94907i bk6: 0a 94907i bk7: 0a 94907i bk8: 0a 94907i bk9: 0a 94907i bk10: 0a 94907i bk11: 0a 94907i bk12: 0a 94907i bk13: 0a 94907i bk14: 0a 94907i bk15: 0a 94907i 

------------------------------------------------------------------------

Row_Buffer_Locality = 0.900000
Row_Buffer_Locality_read = 0.900000
Row_Buffer_Locality_write = -nan
Bank_Level_Parallism = 1.000000
Bank_Level_Parallism_Col = 1.000000
Bank_Level_Parallism_Ready = 1.000000
write_to_read_ratio_blp_rw_average = 0.000000
GrpLevelPara = 1.000000 

BW Util details:
bwutil = 0.000211 
total_CMD = 94907 
util_bw = 20 
Wasted_Col = 31 
Wasted_Row = 0 
Idle = 94856 

BW Util Bottlenecks: 
RCDc_limit = 24 
RCDWRc_limit = 0 
WTRc_limit = 0 
RTWc_limit = 0 
CCDLc_limit = 7 
rwq = 0 
CCDLc_limit_alone = 7 
WTRc_limit_alone = 0 
RTWc_limit_alone = 0 

Commands details: 
total_CMD = 94907 
n_nop = 94895 
Read = 10 
Write = 0 
L2_Alloc = 0 
L2_WB = 0 
n_act = 2 
n_pre = 0 
n_ref = 0 
n_req = 10 
total_req = 10 

Dual Bus Interface Util: 
issued_total_row = 2 
issued_total_col = 10 
Row_Bus_Util =  0.000021 
CoL_Bus_Util = 0.000105 
Either_Row_CoL_Bus_Util = 0.000126 
Issued_on_Two_Bus_Simul_Util = 0.000000 
issued_two_Eff = 0.000000 
queue_avg = 0.000590 


dram_util_bins: 0 0 0 0 0 0 0 0 0 0
dram_eff_bins: 0 0 0 0 0 0 0 0 0 0
mrqq: max=3 avg=0.000590051
Memory Partition 1: 
Cache L2_bank_002:
MSHR contents

Cache L2_bank_003:
MSHR contents

In Dram Latency Queue (total = 0): 
DRAM[1]: 16 bks, busW=4 BL=8 CL=12, tRRD=6 tCCD=2, tRCD=12 tRAS=28 tRP=12 tRC=40
n_cmd=94907 n_nop=94902 n_act=1 n_pre=0 n_ref_event=0 n_req=4 n_rd=4 n_rd_L2_A=0 n_write=0 n_wr_bk=0 bw_util=8.429e-05
n_activity=40 dram_eff=0.2
bk0: 0a 94907i bk1: 4a 94889i bk2: 0a 94906i bk3: 0a 94907i bk4: 0a 94907i bk5: 0a 94907i bk6: 0a 94907i bk7: 0a 94907i bk8: 0a 94907i bk9: 0a 94907i bk10: 0a 94907i bk11: 0a 94907i bk12: 0a 94907i bk13: 0a 94907i bk14: 0a 94907i bk15: 0a 94907i 

------------------------------------------------------------------------

Row_Buffer_Locality = 0.750000
Row_Buffer_Locality_read = 0.750000
Row_Buffer_Locality_write = -nan
Bank_Level_Parallism = 1.000000
Bank_Level_Parallism_Col = 1.000000
Bank_Level_Parallism_Ready = 1.000000
write_to_read_ratio_blp_rw_average = 0.000000
GrpLevelPara = 1.000000 

BW Util details:
bwutil = 0.000084 
total_CMD = 94907 
util_bw = 8 
Wasted_Col = 15 
Wasted_Row = 0 
Idle = 94884 

BW Util Bottlenecks: 
RCDc_limit = 12 
RCDWRc_limit = 0 
WTRc_limit = 0 
RTWc_limit = 0 
CCDLc_limit = 3 
rwq = 0 
CCDLc_limit_alone = 3 
WTRc_limit_alone = 0 
RTWc_limit_alone = 0 

Commands details: 
total_CMD = 94907 
n_nop = 94902 
Read = 4 
Write = 0 
L2_Alloc = 0 
L2_WB = 0 
n_act = 1 
n_pre = 0 
n_ref = 0 
n_req = 4 
total_req = 4 

Dual Bus Interface Util: 
issued_total_row = 1 
issued_total_col = 4 
Row_Bus_Util =  0.000011 
CoL_Bus_Util = 0.000042 
Either_Row_CoL_Bus_Util = 0.000053 
Issued_on_Two_Bus_Simul_Util = 0.000000 
issued_two_Eff = 0.000000 
queue_avg = 0.000411 


dram_util_bins: 0 0 0 0 0 0 0 0 0 0
dram_eff_bins: 0 0 0 0 0 0 0 0 0 0
mrqq: max=3 avg=0.000410929
Memory Partition 2: 
Cache L2_bank_004:
MSHR contents

Cache L2_bank_005:
MSHR contents

In Dram Latency Queue (total = 0): 
DRAM[2]: 16 bks, busW=4 BL=8 CL=12, tRRD=6 tCCD=2, tRCD=12 tRAS=28 tRP=12 tRC=40
n_cmd=94907 n_nop=94907 n_act=0 n_pre=0 n_ref_event=0 n_req=0 n_rd=0 n_rd_L2_A=0 n_write=0 n_wr_bk=0 bw_util=0
n_activity=0 dram_eff=-nan
bk0: 0a 94907i bk1: 0a 94907i bk2: 0a 94907i bk3: 0a 94907i bk4: 0a 94907i bk5: 0a 94907i bk6: 0a 94907i bk7: 0a 94907i bk8: 0a 94907i bk9: 0a 94907i bk10: 0a 94907i bk11: 0a 94907i bk12: 0a 94907i bk13: 0a 94907i bk14: 0a 94907i bk15: 0a 94907i 

------------------------------------------------------------------------

Row_Buffer_Locality = -nan
Row_Buffer_Locality_read = -nan
Row_Buffer_Locality_write = -nan
Bank_Level_Parallism = -nan
Bank_Level_Parallism_Col = -nan
Bank_Level_Parallism_Ready = -nan
write_to_read_ratio_blp_rw_average = -nan
GrpLevelPara = -nan 

BW Util details:
bwutil = 0.000000 
total_CMD = 94907 
util_bw = 0 
Wasted_Col = 0 
Wasted_Row = 0 
Idle = 94907 

BW Util Bottlenecks: 
RCDc_limit = 0 
RCDWRc_limit = 0 
WTRc_limit = 0 
RTWc_limit = 0 
CCDLc_limit = 0 
rwq = 0 
CCDLc_limit_alone = 0 
WTRc_limit_alone = 0 
RTWc_limit_alone = 0 

Commands details: 
total_CMD = 94907 
n_nop = 94907 
Read = 0 
Write = 0 
L2_Alloc = 0 
L2_WB = 0 
n_act = 0 
n_pre = 0 
n_ref = 0 
n_req = 0 
total_req = 0 

Dual Bus Interface Util: 
issued_total_row = 0 
issued_total_col = 0 
Row_Bus_Util =  0.000000 
CoL_Bus_Util = 0.000000 
Either_Row_CoL_Bus_Util = 0.000000 
Issued_on_Two_Bus_Simul_Util = 0.000000 
issued_two_Eff = -nan 
queue_avg = 0.000000 


dram_util_bins: 0 0 0 0 0 0 0 0 0 0
dram_eff_bins: 0 0 0 0 0 0 0 0 0 0
mrqq: max=0 avg=0
Memory Partition 3: 
Cache L2_bank_006:
MSHR contents

Cache L2_bank_007:
MSHR contents

In Dram Latency Queue (total = 0): 
DRAM[3]: 16 bks, busW=4 BL=8 CL=12, tRRD=6 tCCD=2, tRCD=12 tRAS=28 tRP=12 tRC=40
n_cmd=94907 n_nop=94898 n_act=1 n_pre=0 n_ref_event=0 n_req=8 n_rd=8 n_rd_L2_A=0 n_write=0 n_wr_bk=0 bw_util=0.0001686
n_activity=61 dram_eff=0.2623
bk0: 8a 94883i bk1: 0a 94907i bk2: 0a 94907i bk3: 0a 94907i bk4: 0a 94907i bk5: 0a 94907i bk6: 0a 94907i bk7: 0a 94907i bk8: 0a 94907i bk9: 0a 94907i bk10: 0a 94907i bk11: 0a 94907i bk12: 0a 94907i bk13: 0a 94907i bk14: 0a 94907i bk15: 0a 94907i 

------------------------------------------------------------------------

Row_Buffer_Locality = 0.875000
Row_Buffer_Locality_read = 0.875000
Row_Buffer_Locality_write = -nan
Bank_Level_Parallism = 1.000000
Bank_Level_Parallism_Col = 1.000000
Bank_Level_Parallism_Ready = 1.000000
write_to_read_ratio_blp_rw_average = 0.000000
GrpLevelPara = 1.000000 

BW Util details:
bwutil = 0.000169 
total_CMD = 94907 
util_bw = 16 
Wasted_Col = 18 
Wasted_Row = 0 
Idle = 94873 

BW Util Bottlenecks: 
RCDc_limit = 12 
RCDWRc_limit = 0 
WTRc_limit = 0 
RTWc_limit = 0 
CCDLc_limit = 6 
rwq = 0 
CCDLc_limit_alone = 6 
WTRc_limit_alone = 0 
RTWc_limit_alone = 0 

Commands details: 
total_CMD = 94907 
n_nop = 94898 
Read = 8 
Write = 0 
L2_Alloc = 0 
L2_WB = 0 
n_act = 1 
n_pre = 0 
n_ref = 0 
n_req = 8 
total_req = 8 

Dual Bus Interface Util: 
issued_total_row = 1 
issued_total_col = 8 
Row_Bus_Util =  0.000011 
CoL_Bus_Util = 0.000084 
Either_Row_CoL_Bus_Util = 0.000095 
Issued_on_Two_Bus_Simul_Util = 0.000000 
issued_two_Eff = 0.000000 
queue_avg = 0.000464 


dram_util_bins: 0 0 0 0 0 0 0 0 0 0
dram_eff_bins: 0 0 0 0 0 0 0 0 0 0
mrqq: max=3 avg=0.000463612
Memory Partition 4: 
Cache L2_bank_008:
MSHR contents

Cache L2_bank_009:
MSHR contents

In Dram Latency Queue (total = 0): 
DRAM[4]: 16 bks, busW=4 BL=8 CL=12, tRRD=6 tCCD=2, tRCD=12 tRAS=28 tRP=12 tRC=40
n_cmd=94907 n_nop=94898 n_act=1 n_pre=0 n_ref_event=0 n_req=8 n_rd=8 n_rd_L2_A=0 n_write=0 n_wr_bk=0 bw_util=0.0001686
n_activity=61 dram_eff=0.2623
bk0: 8a 94884i bk1: 0a 94907i bk2: 0a 94907i bk3: 0a 94907i bk4: 0a 94907i bk5: 0a 94907i bk6: 0a 94907i bk7: 0a 94907i bk8: 0a 94907i bk9: 0a 94907i bk10: 0a 94907i bk11: 0a 94907i bk12: 0a 94907i bk13: 0a 94907i bk14: 0a 94907i bk15: 0a 94907i 

------------------------------------------------------------------------

Row_Buffer_Locality = 0.875000
Row_Buffer_Locality_read = 0.875000
Row_Buffer_Locality_write = -nan
Bank_Level_Parallism = 1.000000
Bank_Level_Parallism_Col = 1.000000
Bank_Level_Parallism_Ready = 1.000000
write_to_read_ratio_blp_rw_average = 0.000000
GrpLevelPara = 1.000000 

BW Util details:
bwutil = 0.000169 
total_CMD = 94907 
util_bw = 16 
Wasted_Col = 18 
Wasted_Row = 0 
Idle = 94873 

BW Util Bottlenecks: 
RCDc_limit = 12 
RCDWRc_limit = 0 
WTRc_limit = 0 
RTWc_limit = 0 
CCDLc_limit = 6 
rwq = 0 
CCDLc_limit_alone = 6 
WTRc_limit_alone = 0 
RTWc_limit_alone = 0 

Commands details: 
total_CMD = 94907 
n_nop = 94898 
Read = 8 
Write = 0 
L2_Alloc = 0 
L2_WB = 0 
n_act = 1 
n_pre = 0 
n_ref = 0 
n_req = 8 
total_req = 8 

Dual Bus Interface Util: 
issued_total_row = 1 
issued_total_col = 8 
Row_Bus_Util =  0.000011 
CoL_Bus_Util = 0.000084 
Either_Row_CoL_Bus_Util = 0.000095 
Issued_on_Two_Bus_Simul_Util = 0.000000 
issued_two_Eff = 0.000000 
queue_avg = 0.000464 


dram_util_bins: 0 0 0 0 0 0 0 0 0 0
dram_eff_bins: 0 0 0 0 0 0 0 0 0 0
mrqq: max=3 avg=0.000463612
Memory Partition 5: 
Cache L2_bank_010:
MSHR contents

Cache L2_bank_011:
MSHR contents

In Dram Latency Queue (total = 0): 
DRAM[5]: 16 bks, busW=4 BL=8 CL=12, tRRD=6 tCCD=2, tRCD=12 tRAS=28 tRP=12 tRC=40
n_cmd=94907 n_nop=94898 n_act=1 n_pre=0 n_ref_event=0 n_req=8 n_rd=8 n_rd_L2_A=0 n_write=0 n_wr_bk=0 bw_util=0.0001686
n_activity=61 dram_eff=0.2623
bk0: 8a 94883i bk1: 0a 94907i bk2: 0a 94907i bk3: 0a 94907i bk4: 0a 94907i bk5: 0a 94907i bk6: 0a 94907i bk7: 0a 94907i bk8: 0a 94907i bk9: 0a 94907i bk10: 0a 94907i bk11: 0a 94907i bk12: 0a 94907i bk13: 0a 94907i bk14: 0a 94907i bk15: 0a 94907i 

------------------------------------------------------------------------

Row_Buffer_Locality = 0.875000
Row_Buffer_Locality_read = 0.875000
Row_Buffer_Locality_write = -nan
Bank_Level_Parallism = 1.000000
Bank_Level_Parallism_Col = 1.000000
Bank_Level_Parallism_Ready = 1.000000
write_to_read_ratio_blp_rw_average = 0.000000
GrpLevelPara = 1.000000 

BW Util details:
bwutil = 0.000169 
total_CMD = 94907 
util_bw = 16 
Wasted_Col = 18 
Wasted_Row = 0 
Idle = 94873 

BW Util Bottlenecks: 
RCDc_limit = 12 
RCDWRc_limit = 0 
WTRc_limit = 0 
RTWc_limit = 0 
CCDLc_limit = 6 
rwq = 0 
CCDLc_limit_alone = 6 
WTRc_limit_alone = 0 
RTWc_limit_alone = 0 

Commands details: 
total_CMD = 94907 
n_nop = 94898 
Read = 8 
Write = 0 
L2_Alloc = 0 
L2_WB = 0 
n_act = 1 
n_pre = 0 
n_ref = 0 
n_req = 8 
total_req = 8 

Dual Bus Interface Util: 
issued_total_row = 1 
issued_total_col = 8 
Row_Bus_Util =  0.000011 
CoL_Bus_Util = 0.000084 
Either_Row_CoL_Bus_Util = 0.000095 
Issued_on_Two_Bus_Simul_Util = 0.000000 
issued_two_Eff = 0.000000 
queue_avg = 0.000464 


dram_util_bins: 0 0 0 0 0 0 0 0 0 0
dram_eff_bins: 0 0 0 0 0 0 0 0 0 0
mrqq: max=3 avg=0.000463612

========= L2 cache stats =========
L2_cache_bank[0]: Access = 25438, Miss = 486, Miss_rate = 0.019, Pending_hits = 6, Reservation_fails = 106
L2_cache_bank[1]: Access = 25356, Miss = 467, Miss_rate = 0.018, Pending_hits = 24, Reservation_fails = 203
L2_cache_bank[2]: Access = 25436, Miss = 481, Miss_rate = 0.019, Pending_hits = 0, Reservation_fails = 0
L2_cache_bank[3]: Access = 25144, Miss = 458, Miss_rate = 0.018, Pending_hits = 12, Reservation_fails = 0
L2_cache_bank[4]: Access = 24982, Miss = 496, Miss_rate = 0.020, Pending_hits = 0, Reservation_fails = 0
L2_cache_bank[5]: Access = 24918, Miss = 451, Miss_rate = 0.018, Pending_hits = 0, Reservation_fails = 0
L2_cache_bank[6]: Access = 25072, Miss = 493, Miss_rate = 0.020, Pending_hits = 12, Reservation_fails = 109
L2_cache_bank[7]: Access = 25036, Miss = 454, Miss_rate = 0.018, Pending_hits = 0, Reservation_fails = 0
L2_cache_bank[8]: Access = 25276, Miss = 475, Miss_rate = 0.019, Pending_hits = 19, Reservation_fails = 89
L2_cache_bank[9]: Access = 25168, Miss = 463, Miss_rate = 0.018, Pending_hits = 0, Reservation_fails = 0
L2_cache_bank[10]: Access = 25202, Miss = 467, Miss_rate = 0.019, Pending_hits = 24, Reservation_fails = 100
L2_cache_bank[11]: Access = 24950, Miss = 474, Miss_rate = 0.019, Pending_hits = 0, Reservation_fails = 0
L2_total_cache_accesses = 301978
L2_total_cache_misses = 5665
L2_total_cache_miss_rate = 0.0188
L2_total_cache_pending_hits = 97
L2_total_cache_reservation_fails = 607
L2_total_cache_breakdown:
	L2_cache_stats_breakdown[GLOBAL_ACC_R][HIT] = 295208
	L2_cache_stats_breakdown[GLOBAL_ACC_R][HIT_RESERVED] = 0
	L2_cache_stats_breakdown[GLOBAL_ACC_R][MISS] = 0
	L2_cache_stats_breakdown[GLOBAL_ACC_R][RESERVATION_FAIL] = 0
	L2_cache_stats_breakdown[GLOBAL_ACC_R][SECTOR_MISS] = 0
	L2_cache_stats_breakdown[GLOBAL_ACC_R][MSHR_HIT] = 0
	L2_cache_stats_breakdown[LOCAL_ACC_R][HIT] = 0
	L2_cache_stats_breakdown[LOCAL_ACC_R][HIT_RESERVED] = 0
	L2_cache_stats_breakdown[LOCAL_ACC_R][MISS] = 0
	L2_cache_stats_breakdown[LOCAL_ACC_R][RESERVATION_FAIL] = 0
	L2_cache_stats_breakdown[LOCAL_ACC_R][SECTOR_MISS] = 0
	L2_cache_stats_breakdown[LOCAL_ACC_R][MSHR_HIT] = 0
	L2_cache_stats_breakdown[CONST_ACC_R][HIT] = 22
	L2_cache_stats_breakdown[CONST_ACC_R][HIT_RESERVED] = 6
	L2_cache_stats_breakdown[CONST_ACC_R][MISS] = 1
	L2_cache_stats_breakdown[CONST_ACC_R][RESERVATION_FAIL] = 106
	L2_cache_stats_breakdown[CONST_ACC_R][SECTOR_MISS] = 1
	L2_cache_stats_breakdown[CONST_ACC_R][MSHR_HIT] = 6
	L2_cache_stats_breakdown[TEXTURE_ACC_R][HIT] = 0
	L2_cache_stats_breakdown[TEXTURE_ACC_R][HIT_RESERVED] = 0
	L2_cache_stats_breakdown[TEXTURE_ACC_R][MISS] = 0
	L2_cache_stats_breakdown[TEXTURE_ACC_R][RESERVATION_FAIL] = 0
	L2_cache_stats_breakdown[TEXTURE_ACC_R][SECTOR_MISS] = 0
	L2_cache_stats_breakdown[TEXTURE_ACC_R][MSHR_HIT] = 0
	L2_cache_stats_breakdown[GLOBAL_ACC_W][HIT] = 573
	L2_cache_stats_breakdown[GLOBAL_ACC_W][HIT_RESERVED] = 0
	L2_cache_stats_breakdown[GLOBAL_ACC_W][MISS] = 1250
	L2_cache_stats_breakdown[GLOBAL_ACC_W][RESERVATION_FAIL] = 0
	L2_cache_stats_breakdown[GLOBAL_ACC_W][SECTOR_MISS] = 4377
	L2_cache_stats_breakdown[GLOBAL_ACC_W][MSHR_HIT] = 0
	L2_cache_stats_breakdown[LOCAL_ACC_W][HIT] = 0
	L2_cache_stats_breakdown[LOCAL_ACC_W][HIT_RESERVED] = 0
	L2_cache_stats_breakdown[LOCAL_ACC_W][MISS] = 0
	L2_cache_stats_breakdown[LOCAL_ACC_W][RESERVATION_FAIL] = 0
	L2_cache_stats_breakdown[LOCAL_ACC_W][SECTOR_MISS] = 0
	L2_cache_stats_breakdown[LOCAL_ACC_W][MSHR_HIT] = 0
	L2_cache_stats_breakdown[L1_WRBK_ACC][HIT] = 0
	L2_cache_stats_breakdown[L1_WRBK_ACC][HIT_RESERVED] = 0
	L2_cache_stats_breakdown[L1_WRBK_ACC][MISS] = 0
	L2_cache_stats_breakdown[L1_WRBK_ACC][RESERVATION_FAIL] = 0
	L2_cache_stats_breakdown[L1_WRBK_ACC][SECTOR_MISS] = 0
	L2_cache_stats_breakdown[L1_WRBK_ACC][MSHR_HIT] = 0
	L2_cache_stats_breakdown[L2_WRBK_ACC][HIT] = 0
	L2_cache_stats_breakdown[L2_WRBK_ACC][HIT_RESERVED] = 0
	L2_cache_stats_breakdown[L2_WRBK_ACC][MISS] = 0
	L2_cache_stats_breakdown[L2_WRBK_ACC][RESERVATION_FAIL] = 0
	L2_cache_stats_breakdown[L2_WRBK_ACC][SECTOR_MISS] = 0
	L2_cache_stats_breakdown[L2_WRBK_ACC][MSHR_HIT] = 0
	L2_cache_stats_breakdown[INST_ACC_R][HIT] = 413
	L2_cache_stats_breakdown[INST_ACC_R][HIT_RESERVED] = 91
	L2_cache_stats_breakdown[INST_ACC_R][MISS] = 9
	L2_cache_stats_breakdown[INST_ACC_R][RESERVATION_FAIL] = 501
	L2_cache_stats_breakdown[INST_ACC_R][SECTOR_MISS] = 27
	L2_cache_stats_breakdown[INST_ACC_R][MSHR_HIT] = 91
	L2_cache_stats_breakdown[L1_WR_ALLOC_R][HIT] = 0
	L2_cache_stats_breakdown[L1_WR_ALLOC_R][HIT_RESERVED] = 0
	L2_cache_stats_breakdown[L1_WR_ALLOC_R][MISS] = 0
	L2_cache_stats_breakdown[L1_WR_ALLOC_R][RESERVATION_FAIL] = 0
	L2_cache_stats_breakdown[L1_WR_ALLOC_R][SECTOR_MISS] = 0
	L2_cache_stats_breakdown[L1_WR_ALLOC_R][MSHR_HIT] = 0
	L2_cache_stats_breakdown[L2_WR_ALLOC_R][HIT] = 0
	L2_cache_stats_breakdown[L2_WR_ALLOC_R][HIT_RESERVED] = 0
	L2_cache_stats_breakdown[L2_WR_ALLOC_R][MISS] = 0
	L2_cache_stats_breakdown[L2_WR_ALLOC_R][RESERVATION_FAIL] = 0
	L2_cache_stats_breakdown[L2_WR_ALLOC_R][SECTOR_MISS] = 0
	L2_cache_stats_breakdown[L2_WR_ALLOC_R][MSHR_HIT] = 0
	L2_cache_stats_breakdown[GLOBAL_ACC_R][TOTAL_ACCESS] = 295208
	L2_cache_stats_breakdown[CONST_ACC_R][TOTAL_ACCESS] = 36
	L2_cache_stats_breakdown[GLOBAL_ACC_W][TOTAL_ACCESS] = 6200
	L2_cache_stats_breakdown[INST_ACC_R][TOTAL_ACCESS] = 631
L2_total_cache_reservation_fail_breakdown:
	L2_cache_stats_fail_breakdown[CONST_ACC_R][MSHR_MERGE_ENRTY_FAIL] = 106
	L2_cache_stats_fail_breakdown[INST_ACC_R][MSHR_MERGE_ENRTY_FAIL] = 501
L2_cache_data_port_util = 0.343
L2_cache_fill_port_util = 0.000

icnt_total_pkts_mem_to_simt=301978
icnt_total_pkts_simt_to_mem=80152
LD_mem_lat_dist  0 0 0 0 0 0 0 0 0 0 0 0 0 0 0 0 0 0 0 0 0 0 0 0 0 0 0
ST_mem_lat_dist  0 0 0 0 0 0 0 0 0 0 0 0 0 0 0 0 0 0 0 0 0 0 0 0 0 0 0
----------------------------Interconnect-DETAILS--------------------------------
Class 0:
Packet latency average = 57.5137
	minimum = 5
	maximum = 269
Network latency average = 54.9223
	minimum = 5
	maximum = 269
Slowest packet = 9870
Flit latency average = 54.5236
	minimum = 5
	maximum = 269
Slowest flit = 9870
Fragmentation average = 0
	minimum = 0
	maximum = 0
Injected packet rate average = 0.195297
	minimum = 0.0676078 (at node 10)
	maximum = 0.353797 (at node 15)
Accepted packet rate average = 0.195297
	minimum = 0.0885675 (at node 20)
	maximum = 0.295939 (at node 4)
Injected flit rate average = 0.196842
	minimum = 0.0699722 (at node 10)
	maximum = 0.353797 (at node 15)
Accepted flit rate average= 0.196842
	minimum = 0.0920028 (at node 20)
	maximum = 0.295939 (at node 4)
Injected packet length average = 1.00791
Accepted packet length average = 1.00791
Total in-flight flits = 0 (0 measured)
====== Overall Traffic Statistics ======
====== Traffic class 0 ======
Packet latency average = 57.5137 (1 samples)
	minimum = 5 (1 samples)
	maximum = 269 (1 samples)
Network latency average = 54.9223 (1 samples)
	minimum = 5 (1 samples)
	maximum = 269 (1 samples)
Flit latency average = 54.5236 (1 samples)
	minimum = 5 (1 samples)
	maximum = 269 (1 samples)
Fragmentation average = 0 (1 samples)
	minimum = 0 (1 samples)
	maximum = 0 (1 samples)
Injected packet rate average = 0.195297 (1 samples)
	minimum = 0.0676078 (1 samples)
	maximum = 0.353797 (1 samples)
Accepted packet rate average = 0.195297 (1 samples)
	minimum = 0.0885675 (1 samples)
	maximum = 0.295939 (1 samples)
Injected flit rate average = 0.196842 (1 samples)
	minimum = 0.0699722 (1 samples)
	maximum = 0.353797 (1 samples)
Accepted flit rate average = 0.196842 (1 samples)
	minimum = 0.0920028 (1 samples)
	maximum = 0.295939 (1 samples)
Injected packet size average = 1.00791 (1 samples)
Accepted packet size average = 1.00791 (1 samples)
Hops average = 1 (1 samples)
----------------------------END-of-Interconnect-DETAILS-------------------------


gpgpu_simulation_time = 0 days, 0 hrs, 0 min, 56 sec (56 sec)
gpgpu_simulation_rate = 707376 (inst/sec)
gpgpu_simulation_rate = 1283 (cycle/sec)
gpgpu_silicon_slowdown = 545596x
GPGPU-Sim: synchronize waiting for inactive GPU simulation
GPGPU-Sim API: Stream Manager State
GPGPU-Sim: detected inactive GPU simulation thread
event update
GPGPU-Sim API: cudaEventSynchronize ** waiting for event
GPGPU-Sim API: cudaEventSynchronize ** event detected
Time elapsed on matrix multiplication of 200x200 . 200x200 on GPU: 56000.000000 ms.

event update
event update
GPGPU-Sim API: cudaEventSynchronize ** waiting for event
GPGPU-Sim API: cudaEventSynchronize ** event detected
Time elapsed on matrix multiplication of 200x200 . 200x200 on CPU: 0.000000 ms.

all results are correct!!!, speedup = 0.000000
GPGPU-Sim: *** exit detected ***
